Circuit: * C:\Users\maksym\source\repos\Dohle\String Maschine\simulations\BBD and VCA without buffer.asc

Error on line 13786 : q:u3:1 n015«:vee» 0«:vgnd» nc_01«:mode» 0«:0» pnp
	 Unable to find definition of model "pnp"
WARNING: Node P002 is floating.

Direct Newton iteration failed to find .op point.  (Use ".option noopiter" to skip.)
Starting Gmin stepping
Gmin = 10
Gmin = 1.07374
Gmin = 0.115292
Gmin = 0.0123794
Gmin = 0.00132923
Gmin = 0.000142725
Gmin = 1.5325e-005
vernier = 0.5
vernier = 0.25
vernier = 0.125
Gmin = 1.02473e-005
vernier = 0.166667
vernier = 0.222222
Gmin = 6.92888e-006
vernier = 0.296296
Gmin = 3.69902e-006
vernier = 0.395061
vernier = 0.526748
Gmin = 1.35034e-006
vernier = 0.702331
vernier = 0.936441
Gmin = 2.86017e-007
vernier = 1
Gmin = 3.27395e-008
Gmin = 3.51537e-009
Gmin = 3.7746e-010
Gmin = 4.05295e-011
Gmin = 4.35182e-012
Gmin = 4.67273e-013
Gmin = 0
Gmin stepping succeeded in finding the operating point.

Ignoring empty pin current: Ix(u1:n009)
Ignoring empty pin current: Ix(u1:nreset)
Ignoring empty pin current: Ix(u1:n002)
Ignoring empty pin current: Ix(u1:n005)
Ignoring empty pin current: Ix(u1:n008)
Ignoring empty pin current: Ix(u2:n009)
Ignoring empty pin current: Ix(u2:nreset)
Ignoring empty pin current: Ix(u2:n002)
Ignoring empty pin current: Ix(u2:n005)
Ignoring empty pin current: Ix(u2:n008)
Ignoring empty pin current: Ix(u3:in)
Ignoring empty pin current: Ix(u3:out)
Ignoring empty pin current: Ix(u3:vcc)
Ignoring empty pin current: Ix(u3:gnd)
Ignoring empty pin current: Ix(u3:nout)
Ignoring empty pin current: Ix(u4:in)
Ignoring empty pin current: Ix(u4:out)
Ignoring empty pin current: Ix(u4:vcc)
Ignoring empty pin current: Ix(u4:gnd)
Ignoring empty pin current: Ix(u4:nout)
Ignoring empty pin current: Ix(u5:in)
Ignoring empty pin current: Ix(u5:out)
Ignoring empty pin current: Ix(u5:vcc)
Ignoring empty pin current: Ix(u5:gnd)
Ignoring empty pin current: Ix(u5:nout)
Ignoring empty pin current: Ix(u6:in)
Ignoring empty pin current: Ix(u6:out)
Ignoring empty pin current: Ix(u6:vcc)
Ignoring empty pin current: Ix(u6:gnd)
Ignoring empty pin current: Ix(u6:nout)
Ignoring empty pin current: Ix(u7:in)
Ignoring empty pin current: Ix(u7:out)
Ignoring empty pin current: Ix(u7:vcc)
Ignoring empty pin current: Ix(u7:gnd)
Ignoring empty pin current: Ix(u7:nout)
Ignoring empty pin current: Ix(u8:in)
Ignoring empty pin current: Ix(u8:out)
Ignoring empty pin current: Ix(u8:vcc)
Ignoring empty pin current: Ix(u8:gnd)
Ignoring empty pin current: Ix(u8:nout)
Ignoring empty pin current: Ix(u1:n009)
Ignoring empty pin current: Ix(u1:nreset)
Ignoring empty pin current: Ix(u1:n002)
Ignoring empty pin current: Ix(u1:n005)
Ignoring empty pin current: Ix(u1:n008)
Ignoring empty pin current: Ix(u2:n009)
Ignoring empty pin current: Ix(u2:nreset)
Ignoring empty pin current: Ix(u2:n002)
Ignoring empty pin current: Ix(u2:n005)
Ignoring empty pin current: Ix(u2:n008)
Ignoring empty pin current: Ix(u3:in)
Ignoring empty pin current: Ix(u3:out)
Ignoring empty pin current: Ix(u3:vcc)
Ignoring empty pin current: Ix(u3:gnd)
Ignoring empty pin current: Ix(u3:nout)
Ignoring empty pin current: Ix(u4:in)
Ignoring empty pin current: Ix(u4:out)
Ignoring empty pin current: Ix(u4:vcc)
Ignoring empty pin current: Ix(u4:gnd)
Ignoring empty pin current: Ix(u4:nout)
Ignoring empty pin current: Ix(u5:in)
Ignoring empty pin current: Ix(u5:out)
Ignoring empty pin current: Ix(u5:vcc)
Ignoring empty pin current: Ix(u5:gnd)
Ignoring empty pin current: Ix(u5:nout)
Ignoring empty pin current: Ix(u6:in)
Ignoring empty pin current: Ix(u6:out)
Ignoring empty pin current: Ix(u6:vcc)
Ignoring empty pin current: Ix(u6:gnd)
Ignoring empty pin current: Ix(u6:nout)
Ignoring empty pin current: Ix(u7:in)
Ignoring empty pin current: Ix(u7:out)
Ignoring empty pin current: Ix(u7:vcc)
Ignoring empty pin current: Ix(u7:gnd)
Ignoring empty pin current: Ix(u7:nout)
Ignoring empty pin current: Ix(u8:in)
Ignoring empty pin current: Ix(u8:out)
Ignoring empty pin current: Ix(u8:vcc)
Ignoring empty pin current: Ix(u8:gnd)
Ignoring empty pin current: Ix(u8:nout)

Date: Sun Jul 24 11:42:53 2022
Total elapsed time: 40.973 seconds.

tnom = 27
temp = 27
method = modified trap
totiter = 3525508
traniter = 3524495
tranpoints = 1536023
accept = 1125457
rejected = 410566
matrix size = 141
fillins = 62
solver = Normal
Thread vector: 9.3/5.7[2] 3.7/2.5[2] 1.8/1.3[2] 0.3/1.7[1]  2592/500
Matrix Compiler1: 11.64 KB object code size  2.0/1.0/[0.9]
Matrix Compiler2: 13.66 KB object code size  1.2/1.4/[0.9]

