Circuit: * C:\Users\maksym\source\repos\Dohle\String Maschine\simulations\Draft2.asc

Direct Newton iteration for .op point succeeded.
Heightened Def Con from 3.55606e-009 to 4.68106e-009
Heightened Def Con from 5.53826e-009 to 6.5385e-009
Heightened Def Con from 6.53898e-009 to 7.66398e-009
Heightened Def Con from 8.52528e-009 to 9.52552e-009
Heightened Def Con from 9.526e-009 to 1.0651e-008
Heightened Def Con from 1.15162e-008 to 1.25164e-008
Heightened Def Con from 1.25169e-008 to 1.36419e-008
Heightened Def Con from 1.45108e-008 to 1.5511e-008
Heightened Def Con from 1.55115e-008 to 1.66365e-008
Heightened Def Con from 1.75091e-008 to 1.85093e-008
Heightened Def Con from 1.85098e-008 to 1.96348e-008
Heightened Def Con from 2.05109e-008 to 2.15111e-008
Heightened Def Con from 2.15116e-008 to 2.26366e-008
Heightened Def Con from 2.35159e-008 to 2.45162e-008
Heightened Def Con from 2.45167e-008 to 2.56417e-008
Heightened Def Con from 2.65234e-008 to 2.75236e-008
Heightened Def Con from 2.75242e-008 to 2.86492e-008
Heightened Def Con from 2.9534e-008 to 3.05343e-008
Heightened Def Con from 3.05348e-008 to 3.16598e-008
Heightened Def Con from 3.25476e-008 to 3.35479e-008
Heightened Def Con from 3.35484e-008 to 3.46734e-008
Heightened Def Con from 3.5564e-008 to 3.65642e-008
Heightened Def Con from 3.65648e-008 to 3.76898e-008
Heightened Def Con from 3.85829e-008 to 3.95831e-008
Heightened Def Con from 3.95837e-008 to 4.07087e-008
Heightened Def Con from 4.16043e-008 to 4.26046e-008
Heightened Def Con from 4.26051e-008 to 4.37301e-008
Heightened Def Con from 4.46281e-008 to 4.56283e-008
Heightened Def Con from 4.56289e-008 to 4.67539e-008
Heightened Def Con from 4.7654e-008 to 4.86543e-008
Heightened Def Con from 4.86548e-008 to 4.97798e-008
Heightened Def Con from 5.06821e-008 to 5.16824e-008
Heightened Def Con from 5.16829e-008 to 5.28079e-008
Heightened Def Con from 5.37121e-008 to 5.47124e-008
Heightened Def Con from 5.4713e-008 to 5.5838e-008
Heightened Def Con from 5.67441e-008 to 5.77444e-008
Heightened Def Con from 5.77449e-008 to 5.88699e-008
Heightened Def Con from 5.97779e-008 to 6.07781e-008
Heightened Def Con from 6.07787e-008 to 6.19037e-008
Heightened Def Con from 6.28127e-008 to 6.3813e-008
Heightened Def Con from 6.38135e-008 to 6.49385e-008
Heightened Def Con from 6.58493e-008 to 6.68495e-008
Heightened Def Con from 6.68501e-008 to 6.79751e-008
Heightened Def Con from 6.88875e-008 to 6.98877e-008
Heightened Def Con from 6.98883e-008 to 7.10133e-008
Heightened Def Con from 7.19271e-008 to 7.29274e-008
Heightened Def Con from 7.29279e-008 to 7.40529e-008
Heightened Def Con from 7.49665e-008 to 7.59667e-008
Heightened Def Con from 7.59673e-008 to 7.70923e-008
Heightened Def Con from 7.80073e-008 to 7.90076e-008
Heightened Def Con from 7.90081e-008 to 8.01331e-008
Heightened Def Con from 8.10494e-008 to 8.20497e-008
Heightened Def Con from 8.20502e-008 to 8.31752e-008
Heightened Def Con from 8.40928e-008 to 8.5093e-008
Heightened Def Con from 8.50936e-008 to 8.62186e-008
Heightened Def Con from 8.71373e-008 to 8.81375e-008
Heightened Def Con from 8.81381e-008 to 8.92631e-008
Heightened Def Con from 9.01828e-008 to 9.11831e-008
Heightened Def Con from 9.11837e-008 to 9.23087e-008
Heightened Def Con from 9.32295e-008 to 9.42297e-008
Heightened Def Con from 9.42303e-008 to 9.53553e-008
Heightened Def Con from 9.62771e-008 to 9.72773e-008
Heightened Def Con from 9.72779e-008 to 9.84029e-008
Heightened Def Con from 9.93256e-008 to 1.00326e-007
Heightened Def Con from 1.00326e-007 to 1.01451e-007
Heightened Def Con from 1.02375e-007 to 1.03375e-007
Heightened Def Con from 1.03376e-007 to 1.04501e-007
Heightened Def Con from 1.05425e-007 to 1.06425e-007
Heightened Def Con from 1.06426e-007 to 1.07551e-007
Heightened Def Con from 1.08476e-007 to 1.09476e-007
Heightened Def Con from 1.09477e-007 to 1.10602e-007
Heightened Def Con from 1.11528e-007 to 1.12528e-007
Heightened Def Con from 1.12529e-007 to 1.13654e-007
Heightened Def Con from 1.1458e-007 to 1.15581e-007
Heightened Def Con from 1.15581e-007 to 1.16706e-007
Heightened Def Con from 1.17633e-007 to 1.18634e-007
Heightened Def Con from 1.18634e-007 to 1.19759e-007
Heightened Def Con from 1.20687e-007 to 1.21687e-007
Heightened Def Con from 1.21688e-007 to 1.22813e-007
Heightened Def Con from 1.23741e-007 to 1.24742e-007
Heightened Def Con from 1.24742e-007 to 1.25867e-007
Heightened Def Con from 1.26796e-007 to 1.27796e-007
Heightened Def Con from 1.27797e-007 to 1.28922e-007
Heightened Def Con from 1.29852e-007 to 1.30852e-007
Heightened Def Con from 1.30852e-007 to 1.31977e-007
Heightened Def Con from 1.32908e-007 to 1.33908e-007
Heightened Def Con from 1.33908e-007 to 1.35033e-007
Heightened Def Con from 1.35964e-007 to 1.36964e-007
Heightened Def Con from 1.36965e-007 to 1.3809e-007
Heightened Def Con from 1.39021e-007 to 1.40021e-007
Heightened Def Con from 1.40022e-007 to 1.41147e-007
Heightened Def Con from 1.42078e-007 to 1.43078e-007
Heightened Def Con from 1.43079e-007 to 1.44204e-007
Heightened Def Con from 1.45136e-007 to 1.46136e-007
Heightened Def Con from 1.46136e-007 to 1.47261e-007
Heightened Def Con from 1.48194e-007 to 1.49194e-007
Heightened Def Con from 1.49195e-007 to 1.5032e-007
Heightened Def Con from 1.51252e-007 to 1.52252e-007
Heightened Def Con from 1.52253e-007 to 1.53378e-007
Heightened Def Con from 1.54311e-007 to 1.55311e-007
Heightened Def Con from 1.55312e-007 to 1.56437e-007
Heightened Def Con from 1.5737e-007 to 1.5837e-007
Heightened Def Con from 1.58371e-007 to 1.59496e-007
Heightened Def Con from 1.60429e-007 to 1.6143e-007
Heightened Def Con from 1.6143e-007 to 1.62555e-007
Heightened Def Con from 1.63489e-007 to 1.64489e-007
Heightened Def Con from 1.6449e-007 to 1.65615e-007
Heightened Def Con from 1.66549e-007 to 1.67549e-007
Heightened Def Con from 1.6755e-007 to 1.68675e-007
Heightened Def Con from 1.69609e-007 to 1.70609e-007
Heightened Def Con from 1.7061e-007 to 1.71735e-007
Heightened Def Con from 1.7267e-007 to 1.7367e-007
Heightened Def Con from 1.73671e-007 to 1.74796e-007
Heightened Def Con from 1.7573e-007 to 1.76731e-007
Heightened Def Con from 1.76731e-007 to 1.77856e-007
Heightened Def Con from 1.78791e-007 to 1.79792e-007
Heightened Def Con from 1.79792e-007 to 1.80917e-007
Heightened Def Con from 1.81852e-007 to 1.82853e-007
Heightened Def Con from 1.82853e-007 to 1.83978e-007
Heightened Def Con from 1.84914e-007 to 1.85914e-007
Heightened Def Con from 1.85915e-007 to 1.8704e-007
Heightened Def Con from 1.87975e-007 to 1.88976e-007
Heightened Def Con from 1.88976e-007 to 1.90101e-007
Heightened Def Con from 1.91037e-007 to 1.92037e-007
Heightened Def Con from 1.92038e-007 to 1.93163e-007
Heightened Def Con from 1.94099e-007 to 1.95099e-007
Heightened Def Con from 1.951e-007 to 1.96225e-007
Heightened Def Con from 1.97161e-007 to 1.98161e-007
Heightened Def Con from 1.98162e-007 to 1.99287e-007
Heightened Def Con from 2.00223e-007 to 2.01224e-007
Heightened Def Con from 2.01224e-007 to 2.02349e-007
Heightened Def Con from 2.03286e-007 to 2.04286e-007
Heightened Def Con from 2.04286e-007 to 2.05411e-007
Heightened Def Con from 2.06348e-007 to 2.07348e-007
Heightened Def Con from 2.07349e-007 to 2.08474e-007
Heightened Def Con from 2.09411e-007 to 2.10411e-007
Heightened Def Con from 2.10412e-007 to 2.11537e-007
Heightened Def Con from 2.12473e-007 to 2.13474e-007
Heightened Def Con from 2.13474e-007 to 2.14599e-007
Heightened Def Con from 2.15536e-007 to 2.16537e-007
Heightened Def Con from 2.16537e-007 to 2.17662e-007
Heightened Def Con from 2.18599e-007 to 2.196e-007
Heightened Def Con from 2.196e-007 to 2.20725e-007
Heightened Def Con from 2.21662e-007 to 2.22663e-007
Heightened Def Con from 2.22663e-007 to 2.23788e-007
Heightened Def Con from 2.24726e-007 to 2.25726e-007
Heightened Def Con from 2.25726e-007 to 2.26851e-007
Heightened Def Con from 2.27789e-007 to 2.28789e-007
Heightened Def Con from 2.2879e-007 to 2.29915e-007
Heightened Def Con from 2.30852e-007 to 2.31852e-007
Heightened Def Con from 2.31853e-007 to 2.32978e-007
Heightened Def Con from 2.33916e-007 to 2.34916e-007
Heightened Def Con from 2.34916e-007 to 2.36041e-007
Heightened Def Con from 2.36979e-007 to 2.37979e-007
Heightened Def Con from 2.3798e-007 to 2.39105e-007
Heightened Def Con from 2.40043e-007 to 2.41043e-007
Heightened Def Con from 2.41043e-007 to 2.42168e-007
Heightened Def Con from 2.43106e-007 to 2.44106e-007
Heightened Def Con from 2.44107e-007 to 2.45232e-007
Heightened Def Con from 2.4617e-007 to 2.4717e-007
Heightened Def Con from 2.47171e-007 to 2.48296e-007
Heightened Def Con from 2.49234e-007 to 2.50234e-007
Heightened Def Con from 2.50235e-007 to 2.5136e-007
Heightened Def Con from 2.52298e-007 to 2.53298e-007
Heightened Def Con from 2.53298e-007 to 2.54423e-007
Heightened Def Con from 2.55361e-007 to 2.56362e-007
Heightened Def Con from 2.56362e-007 to 2.57487e-007
Heightened Def Con from 2.58425e-007 to 2.59426e-007
Heightened Def Con from 2.59426e-007 to 2.60551e-007
Heightened Def Con from 2.61489e-007 to 2.6249e-007
Heightened Def Con from 2.6249e-007 to 2.63615e-007
Heightened Def Con from 2.64553e-007 to 2.65554e-007
Heightened Def Con from 2.65554e-007 to 2.66679e-007
Heightened Def Con from 2.67618e-007 to 2.68618e-007
Heightened Def Con from 2.68618e-007 to 2.69743e-007
Heightened Def Con from 2.70682e-007 to 2.71682e-007
Heightened Def Con from 2.71683e-007 to 2.72808e-007
Heightened Def Con from 2.73746e-007 to 2.74746e-007
Heightened Def Con from 2.74747e-007 to 2.75872e-007
Heightened Def Con from 2.7681e-007 to 2.7781e-007
Heightened Def Con from 2.77811e-007 to 2.78936e-007
Heightened Def Con from 2.79874e-007 to 2.80875e-007
Heightened Def Con from 2.80875e-007 to 2.82e-007
Heightened Def Con from 2.82939e-007 to 2.83939e-007
Heightened Def Con from 2.8394e-007 to 2.85065e-007
Heightened Def Con from 2.86003e-007 to 2.87003e-007
Heightened Def Con from 2.87004e-007 to 2.88129e-007
Heightened Def Con from 2.89067e-007 to 2.90068e-007
Heightened Def Con from 2.90068e-007 to 2.91193e-007
Heightened Def Con from 2.92132e-007 to 2.93132e-007
Heightened Def Con from 2.93133e-007 to 2.94258e-007
Heightened Def Con from 2.95196e-007 to 2.96196e-007
Heightened Def Con from 2.96197e-007 to 2.97322e-007
Heightened Def Con from 2.98261e-007 to 2.99261e-007
Heightened Def Con from 2.99261e-007 to 3.00386e-007
Heightened Def Con from 3.01325e-007 to 3.02325e-007
Heightened Def Con from 3.02326e-007 to 3.03451e-007
Heightened Def Con from 3.0439e-007 to 3.0539e-007
Heightened Def Con from 3.0539e-007 to 3.06515e-007
Heightened Def Con from 3.07454e-007 to 3.08454e-007
Heightened Def Con from 3.08455e-007 to 3.0958e-007
Heightened Def Con from 3.10519e-007 to 3.11519e-007
Heightened Def Con from 3.1152e-007 to 3.12645e-007
Heightened Def Con from 3.13583e-007 to 3.14583e-007
Heightened Def Con from 3.14584e-007 to 3.15709e-007
Heightened Def Con from 3.16648e-007 to 3.17648e-007
Heightened Def Con from 3.17649e-007 to 3.18774e-007
Heightened Def Con from 3.19712e-007 to 3.20713e-007
Heightened Def Con from 3.20713e-007 to 3.21838e-007
Heightened Def Con from 3.22777e-007 to 3.23777e-007
Heightened Def Con from 3.23778e-007 to 3.24903e-007
Heightened Def Con from 3.25842e-007 to 3.26842e-007
Heightened Def Con from 3.26843e-007 to 3.27968e-007
Heightened Def Con from 3.28906e-007 to 3.29907e-007
Heightened Def Con from 3.29907e-007 to 3.31032e-007
Heightened Def Con from 3.31971e-007 to 3.32971e-007
Heightened Def Con from 3.32972e-007 to 3.34097e-007
Heightened Def Con from 3.35036e-007 to 3.36036e-007
Heightened Def Con from 3.36036e-007 to 3.37161e-007
Heightened Def Con from 3.381e-007 to 3.39101e-007
Heightened Def Con from 3.39101e-007 to 3.40226e-007
Heightened Def Con from 3.41165e-007 to 3.42165e-007
Heightened Def Con from 3.42166e-007 to 3.43291e-007
Heightened Def Con from 3.4423e-007 to 3.4523e-007
Heightened Def Con from 3.45231e-007 to 3.46356e-007
Heightened Def Con from 3.47294e-007 to 3.48295e-007
Heightened Def Con from 3.48295e-007 to 3.4942e-007
Heightened Def Con from 3.50359e-007 to 3.51359e-007
Heightened Def Con from 3.5136e-007 to 3.52485e-007
Heightened Def Con from 3.53424e-007 to 3.54424e-007
Heightened Def Con from 3.54425e-007 to 3.5555e-007
Heightened Def Con from 3.56489e-007 to 3.57489e-007
Heightened Def Con from 3.5749e-007 to 3.58615e-007
Heightened Def Con from 3.59553e-007 to 3.60554e-007
Heightened Def Con from 3.60554e-007 to 3.61679e-007
Heightened Def Con from 3.62618e-007 to 3.63619e-007
Heightened Def Con from 3.63619e-007 to 3.64744e-007
Heightened Def Con from 3.65683e-007 to 3.66683e-007
Heightened Def Con from 3.66684e-007 to 3.67809e-007
Heightened Def Con from 3.68748e-007 to 3.69748e-007
Heightened Def Con from 3.69749e-007 to 3.70874e-007
Heightened Def Con from 3.71813e-007 to 3.72813e-007
Heightened Def Con from 3.72814e-007 to 3.73939e-007
Heightened Def Con from 3.74877e-007 to 3.75878e-007
Heightened Def Con from 3.75878e-007 to 3.77003e-007
Heightened Def Con from 3.77942e-007 to 3.78943e-007
Heightened Def Con from 3.78943e-007 to 3.80068e-007
Heightened Def Con from 3.81007e-007 to 3.82007e-007
Heightened Def Con from 3.82008e-007 to 3.83133e-007
Heightened Def Con from 3.84072e-007 to 3.85072e-007
Heightened Def Con from 3.85073e-007 to 3.86198e-007
Heightened Def Con from 3.87137e-007 to 3.88137e-007
Heightened Def Con from 3.88138e-007 to 3.89263e-007
Heightened Def Con from 3.90202e-007 to 3.91202e-007
Heightened Def Con from 3.91202e-007 to 3.92327e-007
Heightened Def Con from 3.93266e-007 to 3.94267e-007
Heightened Def Con from 3.94267e-007 to 3.95392e-007
Heightened Def Con from 3.96331e-007 to 3.97332e-007
Heightened Def Con from 3.97332e-007 to 3.98457e-007
Heightened Def Con from 3.99396e-007 to 4.00396e-007
Heightened Def Con from 4.00397e-007 to 4.01522e-007
Heightened Def Con from 4.02461e-007 to 4.03461e-007
Heightened Def Con from 4.03468e-007 to 4.04468e-007
Heightened Def Con from 4.04469e-007 to 4.05594e-007
Heightened Def Con from 4.06505e-007 to 4.07505e-007
Heightened Def Con from 4.07506e-007 to 4.08631e-007
Heightened Def Con from 4.09544e-007 to 4.10544e-007
Heightened Def Con from 4.10545e-007 to 4.1167e-007
Heightened Def Con from 4.12582e-007 to 4.13582e-007
Heightened Def Con from 4.13583e-007 to 4.14708e-007
Heightened Def Con from 4.15622e-007 to 4.16622e-007
Heightened Def Con from 4.16623e-007 to 4.17748e-007
Heightened Def Con from 4.18663e-007 to 4.19664e-007
Heightened Def Con from 4.19664e-007 to 4.20789e-007
Heightened Def Con from 4.21706e-007 to 4.22706e-007
Heightened Def Con from 4.22707e-007 to 4.23832e-007
Heightened Def Con from 4.2475e-007 to 4.2575e-007
Heightened Def Con from 4.2575e-007 to 4.26875e-007
Heightened Def Con from 4.27794e-007 to 4.28795e-007
Heightened Def Con from 4.28795e-007 to 4.2992e-007
Heightened Def Con from 4.3084e-007 to 4.31841e-007
Heightened Def Con from 4.31841e-007 to 4.32966e-007
Heightened Def Con from 4.33887e-007 to 4.34888e-007
Heightened Def Con from 4.34888e-007 to 4.36013e-007
Heightened Def Con from 4.36935e-007 to 4.37936e-007
Heightened Def Con from 4.37936e-007 to 4.39061e-007
Heightened Def Con from 4.39984e-007 to 4.40984e-007
Heightened Def Con from 4.40985e-007 to 4.4211e-007
Heightened Def Con from 4.43034e-007 to 4.44034e-007
Heightened Def Con from 4.44035e-007 to 4.4516e-007
Heightened Def Con from 4.46084e-007 to 4.47085e-007
Heightened Def Con from 4.47085e-007 to 4.4821e-007
Heightened Def Con from 4.49136e-007 to 4.50136e-007
Heightened Def Con from 4.50137e-007 to 4.51262e-007
Heightened Def Con from 4.52188e-007 to 4.53188e-007
Heightened Def Con from 4.53189e-007 to 4.54314e-007
Heightened Def Con from 4.5524e-007 to 4.56241e-007
Heightened Def Con from 4.56241e-007 to 4.57366e-007
Heightened Def Con from 4.58294e-007 to 4.59294e-007
Heightened Def Con from 4.59295e-007 to 4.6042e-007
Heightened Def Con from 4.61348e-007 to 4.62348e-007
Heightened Def Con from 4.62349e-007 to 4.63474e-007
Heightened Def Con from 4.64402e-007 to 4.65402e-007
Heightened Def Con from 4.65403e-007 to 4.66528e-007
Heightened Def Con from 4.67457e-007 to 4.68458e-007
Heightened Def Con from 4.68458e-007 to 4.69583e-007
Heightened Def Con from 4.70513e-007 to 4.71513e-007
Heightened Def Con from 4.71514e-007 to 4.72639e-007
Heightened Def Con from 4.73569e-007 to 4.74569e-007
Heightened Def Con from 4.7457e-007 to 4.75695e-007
Heightened Def Con from 4.76626e-007 to 4.77626e-007
Heightened Def Con from 4.77626e-007 to 4.78751e-007
Heightened Def Con from 4.79683e-007 to 4.80683e-007
Heightened Def Con from 4.80683e-007 to 4.81808e-007
Heightened Def Con from 4.8274e-007 to 4.8374e-007
Heightened Def Con from 4.83741e-007 to 4.84866e-007
Heightened Def Con from 4.85798e-007 to 4.86798e-007
Heightened Def Con from 4.86799e-007 to 4.87924e-007
Heightened Def Con from 4.88856e-007 to 4.89856e-007
Heightened Def Con from 4.89857e-007 to 4.90982e-007
Heightened Def Con from 4.91915e-007 to 4.92915e-007
Heightened Def Con from 4.92915e-007 to 4.9404e-007
Heightened Def Con from 4.94973e-007 to 4.95974e-007
Heightened Def Con from 4.95974e-007 to 4.97099e-007
Heightened Def Con from 4.98033e-007 to 4.99033e-007
Heightened Def Con from 4.99034e-007 to 5.00159e-007
Heightened Def Con from 5.01092e-007 to 5.02092e-007
Heightened Def Con from 5.02093e-007 to 5.03218e-007
Heightened Def Con from 5.04152e-007 to 5.05152e-007
Heightened Def Con from 5.05153e-007 to 5.06278e-007
Heightened Def Con from 5.07212e-007 to 5.08212e-007
Heightened Def Con from 5.08213e-007 to 5.09338e-007
Heightened Def Con from 5.10273e-007 to 5.11273e-007
Heightened Def Con from 5.11273e-007 to 5.12398e-007
Heightened Def Con from 5.13333e-007 to 5.14333e-007
Heightened Def Con from 5.14334e-007 to 5.15459e-007
Heightened Def Con from 5.16394e-007 to 5.17394e-007
Heightened Def Con from 5.17395e-007 to 5.1852e-007
Heightened Def Con from 5.19455e-007 to 5.20455e-007
Heightened Def Con from 5.20456e-007 to 5.21581e-007
Heightened Def Con from 5.22516e-007 to 5.23517e-007
Heightened Def Con from 5.23517e-007 to 5.24642e-007
Heightened Def Con from 5.25578e-007 to 5.26578e-007
Heightened Def Con from 5.26579e-007 to 5.27704e-007
Heightened Def Con from 5.28639e-007 to 5.2964e-007
Heightened Def Con from 5.2964e-007 to 5.30765e-007
Heightened Def Con from 5.31701e-007 to 5.32701e-007
Heightened Def Con from 5.32702e-007 to 5.33827e-007
Heightened Def Con from 5.34763e-007 to 5.35763e-007
Heightened Def Con from 5.35764e-007 to 5.36889e-007
Heightened Def Con from 5.37825e-007 to 5.38826e-007
Heightened Def Con from 5.38826e-007 to 5.39951e-007
Heightened Def Con from 5.40888e-007 to 5.41888e-007
Heightened Def Con from 5.41889e-007 to 5.43014e-007
Heightened Def Con from 5.4395e-007 to 5.4495e-007
Heightened Def Con from 5.44951e-007 to 5.46076e-007
Heightened Def Con from 5.47013e-007 to 5.48013e-007
Heightened Def Con from 5.48014e-007 to 5.49139e-007
Heightened Def Con from 5.50075e-007 to 5.51076e-007
Heightened Def Con from 5.51076e-007 to 5.52201e-007
Heightened Def Con from 5.53138e-007 to 5.54138e-007
Heightened Def Con from 5.54139e-007 to 5.55264e-007
Heightened Def Con from 5.56201e-007 to 5.57201e-007
Heightened Def Con from 5.57202e-007 to 5.58327e-007
Heightened Def Con from 5.59264e-007 to 5.60264e-007
Heightened Def Con from 5.60265e-007 to 5.6139e-007
Heightened Def Con from 5.62327e-007 to 5.63328e-007
Heightened Def Con from 5.63328e-007 to 5.64453e-007
Heightened Def Con from 5.65391e-007 to 5.66391e-007
Heightened Def Con from 5.66391e-007 to 5.67516e-007
Heightened Def Con from 5.68454e-007 to 5.69454e-007
Heightened Def Con from 5.69455e-007 to 5.7058e-007
Heightened Def Con from 5.71517e-007 to 5.72518e-007
Heightened Def Con from 5.72518e-007 to 5.73643e-007
Heightened Def Con from 5.74581e-007 to 5.75581e-007
Heightened Def Con from 5.75582e-007 to 5.76707e-007
Heightened Def Con from 5.77644e-007 to 5.78645e-007
Heightened Def Con from 5.78645e-007 to 5.7977e-007
Heightened Def Con from 5.80708e-007 to 5.81708e-007
Heightened Def Con from 5.81709e-007 to 5.82834e-007
Heightened Def Con from 5.83772e-007 to 5.84772e-007
Heightened Def Con from 5.84773e-007 to 5.85898e-007
Heightened Def Con from 5.86835e-007 to 5.87836e-007
Heightened Def Con from 5.87836e-007 to 5.88961e-007
Heightened Def Con from 5.89899e-007 to 5.909e-007
Heightened Def Con from 5.909e-007 to 5.92025e-007
Heightened Def Con from 5.92963e-007 to 5.93963e-007
Heightened Def Con from 5.93964e-007 to 5.95089e-007
Heightened Def Con from 5.96027e-007 to 5.97027e-007
Heightened Def Con from 5.97028e-007 to 5.98153e-007
Heightened Def Con from 5.99091e-007 to 6.00091e-007
Heightened Def Con from 6.00092e-007 to 6.01217e-007
Heightened Def Con from 6.02155e-007 to 6.03156e-007
Heightened Def Con from 6.03156e-007 to 6.04281e-007
Heightened Def Con from 6.05219e-007 to 6.0622e-007
Heightened Def Con from 6.0622e-007 to 6.07345e-007
Heightened Def Con from 6.08284e-007 to 6.09284e-007
Heightened Def Con from 6.09284e-007 to 6.10409e-007
Heightened Def Con from 6.11348e-007 to 6.12348e-007
Heightened Def Con from 6.12349e-007 to 6.13474e-007
Heightened Def Con from 6.14412e-007 to 6.15412e-007
Heightened Def Con from 6.15413e-007 to 6.16538e-007
Heightened Def Con from 6.17476e-007 to 6.18476e-007
Heightened Def Con from 6.18477e-007 to 6.19602e-007
Heightened Def Con from 6.20541e-007 to 6.21541e-007
Heightened Def Con from 6.21541e-007 to 6.22666e-007
Heightened Def Con from 6.23605e-007 to 6.24605e-007
Heightened Def Con from 6.24606e-007 to 6.25731e-007
Heightened Def Con from 6.26669e-007 to 6.2767e-007
Heightened Def Con from 6.2767e-007 to 6.28795e-007
Heightened Def Con from 6.29734e-007 to 6.30734e-007
Heightened Def Con from 6.30735e-007 to 6.3186e-007
Heightened Def Con from 6.32798e-007 to 6.33798e-007
Heightened Def Con from 6.33799e-007 to 6.34924e-007
Heightened Def Con from 6.35863e-007 to 6.36863e-007
Heightened Def Con from 6.36864e-007 to 6.37989e-007
Heightened Def Con from 6.38927e-007 to 6.39927e-007
Heightened Def Con from 6.39928e-007 to 6.41053e-007
Heightened Def Con from 6.41992e-007 to 6.42992e-007
Heightened Def Con from 6.42993e-007 to 6.44118e-007
Heightened Def Con from 6.45056e-007 to 6.46056e-007
Heightened Def Con from 6.46057e-007 to 6.47182e-007
Heightened Def Con from 6.48121e-007 to 6.49121e-007
Heightened Def Con from 6.49122e-007 to 6.50247e-007
Heightened Def Con from 6.51185e-007 to 6.52186e-007
Heightened Def Con from 6.52186e-007 to 6.53311e-007
Heightened Def Con from 6.5425e-007 to 6.5525e-007
Heightened Def Con from 6.55251e-007 to 6.56376e-007
Heightened Def Con from 6.57315e-007 to 6.58315e-007
Heightened Def Con from 6.58315e-007 to 6.5944e-007
Heightened Def Con from 6.60379e-007 to 6.6138e-007
Heightened Def Con from 6.6138e-007 to 6.62505e-007
Heightened Def Con from 6.63444e-007 to 6.64444e-007
Heightened Def Con from 6.64445e-007 to 6.6557e-007
Heightened Def Con from 6.66509e-007 to 6.67509e-007
Heightened Def Con from 6.67509e-007 to 6.68634e-007
Heightened Def Con from 6.69573e-007 to 6.70574e-007
Heightened Def Con from 6.70574e-007 to 6.71699e-007
Heightened Def Con from 6.72638e-007 to 6.73638e-007
Heightened Def Con from 6.73639e-007 to 6.74764e-007
Heightened Def Con from 6.75703e-007 to 6.76703e-007
Heightened Def Con from 6.76704e-007 to 6.77829e-007
Heightened Def Con from 6.78767e-007 to 6.79768e-007
Heightened Def Con from 6.79768e-007 to 6.80893e-007
Heightened Def Con from 6.81832e-007 to 6.82832e-007
Heightened Def Con from 6.82833e-007 to 6.83958e-007
Heightened Def Con from 6.84897e-007 to 6.85897e-007
Heightened Def Con from 6.85898e-007 to 6.87023e-007
Heightened Def Con from 6.87962e-007 to 6.88962e-007
Heightened Def Con from 6.88963e-007 to 6.90088e-007
Heightened Def Con from 6.91027e-007 to 6.92027e-007
Heightened Def Con from 6.92027e-007 to 6.93152e-007
Heightened Def Con from 6.94091e-007 to 6.95092e-007
Heightened Def Con from 6.95092e-007 to 6.96217e-007
Heightened Def Con from 6.97156e-007 to 6.98156e-007
Heightened Def Con from 6.98157e-007 to 6.99282e-007
Heightened Def Con from 7.00221e-007 to 7.01221e-007
Heightened Def Con from 7.01222e-007 to 7.02347e-007
Heightened Def Con from 7.03286e-007 to 7.04286e-007
Heightened Def Con from 7.04287e-007 to 7.05412e-007
Heightened Def Con from 7.06351e-007 to 7.07351e-007
Heightened Def Con from 7.07352e-007 to 7.08477e-007
Heightened Def Con from 7.09415e-007 to 7.10416e-007
Heightened Def Con from 7.10416e-007 to 7.11541e-007
Heightened Def Con from 7.1248e-007 to 7.13481e-007
Heightened Def Con from 7.13481e-007 to 7.14606e-007
Heightened Def Con from 7.15545e-007 to 7.16545e-007
Heightened Def Con from 7.16546e-007 to 7.17671e-007
Heightened Def Con from 7.1861e-007 to 7.1961e-007
Heightened Def Con from 7.19611e-007 to 7.20736e-007
Heightened Def Con from 7.21675e-007 to 7.22675e-007
Heightened Def Con from 7.22676e-007 to 7.23801e-007
Heightened Def Con from 7.2474e-007 to 7.2574e-007
Heightened Def Con from 7.25741e-007 to 7.26866e-007
Heightened Def Con from 7.27805e-007 to 7.28805e-007
Heightened Def Con from 7.28806e-007 to 7.29931e-007
Heightened Def Con from 7.3087e-007 to 7.3187e-007
Heightened Def Con from 7.3187e-007 to 7.32995e-007
Heightened Def Con from 7.33934e-007 to 7.34935e-007
Heightened Def Con from 7.34935e-007 to 7.3606e-007
Heightened Def Con from 7.36999e-007 to 7.38e-007
Heightened Def Con from 7.38e-007 to 7.39125e-007
Heightened Def Con from 7.40064e-007 to 7.41064e-007
Heightened Def Con from 7.41065e-007 to 7.4219e-007
Heightened Def Con from 7.43129e-007 to 7.44129e-007
Heightened Def Con from 7.4413e-007 to 7.45255e-007
Heightened Def Con from 7.46194e-007 to 7.47194e-007
Heightened Def Con from 7.47195e-007 to 7.4832e-007
Heightened Def Con from 7.49259e-007 to 7.50259e-007
Heightened Def Con from 7.5026e-007 to 7.51385e-007
Heightened Def Con from 7.52324e-007 to 7.53324e-007
Heightened Def Con from 7.53325e-007 to 7.5445e-007
Heightened Def Con from 7.55389e-007 to 7.56389e-007
Heightened Def Con from 7.5639e-007 to 7.57515e-007
Heightened Def Con from 7.58454e-007 to 7.59454e-007
Heightened Def Con from 7.59454e-007 to 7.60579e-007
Heightened Def Con from 7.61518e-007 to 7.62519e-007
Heightened Def Con from 7.62519e-007 to 7.63644e-007
Heightened Def Con from 7.64583e-007 to 7.65584e-007
Heightened Def Con from 7.65584e-007 to 7.66709e-007
Heightened Def Con from 7.67648e-007 to 7.68648e-007
Heightened Def Con from 7.68649e-007 to 7.69774e-007
Heightened Def Con from 7.70713e-007 to 7.71713e-007
Heightened Def Con from 7.71714e-007 to 7.72839e-007
Heightened Def Con from 7.73778e-007 to 7.74778e-007
Heightened Def Con from 7.74779e-007 to 7.75904e-007
Heightened Def Con from 7.76843e-007 to 7.77843e-007
Heightened Def Con from 7.77844e-007 to 7.78969e-007
Heightened Def Con from 7.79908e-007 to 7.80908e-007
Heightened Def Con from 7.80909e-007 to 7.82034e-007
Heightened Def Con from 7.82973e-007 to 7.83973e-007
Heightened Def Con from 7.83974e-007 to 7.85099e-007
Heightened Def Con from 7.86038e-007 to 7.87038e-007
Heightened Def Con from 7.87039e-007 to 7.88164e-007
Heightened Def Con from 7.89103e-007 to 7.90103e-007
Heightened Def Con from 7.90103e-007 to 7.91228e-007
Heightened Def Con from 7.92168e-007 to 7.93168e-007
Heightened Def Con from 7.93168e-007 to 7.94293e-007
Heightened Def Con from 7.95232e-007 to 7.96233e-007
Heightened Def Con from 7.96233e-007 to 7.97358e-007
Heightened Def Con from 7.98297e-007 to 7.99298e-007
Heightened Def Con from 7.99298e-007 to 8.00423e-007
Heightened Def Con from 8.01362e-007 to 8.02363e-007
Heightened Def Con from 8.02363e-007 to 8.03488e-007
Heightened Def Con from 8.04427e-007 to 8.05427e-007
Heightened Def Con from 8.05428e-007 to 8.06553e-007
Heightened Def Con from 8.07492e-007 to 8.08492e-007
Heightened Def Con from 8.08493e-007 to 8.09618e-007
Heightened Def Con from 8.10557e-007 to 8.11557e-007
Heightened Def Con from 8.11558e-007 to 8.12683e-007
Heightened Def Con from 8.13622e-007 to 8.14622e-007
Heightened Def Con from 8.14623e-007 to 8.15748e-007
Heightened Def Con from 8.16687e-007 to 8.17687e-007
Heightened Def Con from 8.17688e-007 to 8.18813e-007
Heightened Def Con from 8.19752e-007 to 8.20752e-007
Heightened Def Con from 8.20753e-007 to 8.21878e-007
Heightened Def Con from 8.22817e-007 to 8.23817e-007
Heightened Def Con from 8.23818e-007 to 8.24943e-007
Heightened Def Con from 8.25882e-007 to 8.26882e-007
Heightened Def Con from 8.26883e-007 to 8.28008e-007
Heightened Def Con from 8.28947e-007 to 8.29947e-007
Heightened Def Con from 8.29948e-007 to 8.31073e-007
Heightened Def Con from 8.32012e-007 to 8.33012e-007
Heightened Def Con from 8.33013e-007 to 8.34138e-007
Heightened Def Con from 8.35077e-007 to 8.36077e-007
Heightened Def Con from 8.36077e-007 to 8.37202e-007
Heightened Def Con from 8.38142e-007 to 8.39142e-007
Heightened Def Con from 8.39142e-007 to 8.40267e-007
Heightened Def Con from 8.41206e-007 to 8.42207e-007
Heightened Def Con from 8.42207e-007 to 8.43332e-007
Heightened Def Con from 8.44271e-007 to 8.45272e-007
Heightened Def Con from 8.45272e-007 to 8.46397e-007
Heightened Def Con from 8.47336e-007 to 8.48337e-007
Heightened Def Con from 8.48337e-007 to 8.49462e-007
Heightened Def Con from 8.50401e-007 to 8.51402e-007
Heightened Def Con from 8.51402e-007 to 8.52527e-007
Heightened Def Con from 8.53466e-007 to 8.54466e-007
Heightened Def Con from 8.54467e-007 to 8.55592e-007
Heightened Def Con from 8.56531e-007 to 8.57531e-007
Heightened Def Con from 8.57532e-007 to 8.58657e-007
Heightened Def Con from 8.59596e-007 to 8.60596e-007
Heightened Def Con from 8.60597e-007 to 8.61722e-007
Heightened Def Con from 8.62661e-007 to 8.63661e-007
Heightened Def Con from 8.63662e-007 to 8.64787e-007
Heightened Def Con from 8.65726e-007 to 8.66726e-007
Heightened Def Con from 8.66727e-007 to 8.67852e-007
Heightened Def Con from 8.68791e-007 to 8.69791e-007
Heightened Def Con from 8.69792e-007 to 8.70917e-007
Heightened Def Con from 8.71856e-007 to 8.72856e-007
Heightened Def Con from 8.72857e-007 to 8.73982e-007
Heightened Def Con from 8.74921e-007 to 8.75921e-007
Heightened Def Con from 8.75922e-007 to 8.77047e-007
Heightened Def Con from 8.77986e-007 to 8.78986e-007
Heightened Def Con from 8.78987e-007 to 8.80112e-007
Heightened Def Con from 8.81051e-007 to 8.82051e-007
Heightened Def Con from 8.82052e-007 to 8.83177e-007
Heightened Def Con from 8.84116e-007 to 8.85116e-007
Heightened Def Con from 8.85117e-007 to 8.86242e-007
Heightened Def Con from 8.87181e-007 to 8.88181e-007
Heightened Def Con from 8.88182e-007 to 8.89307e-007
Heightened Def Con from 8.90246e-007 to 8.91246e-007
Heightened Def Con from 8.91246e-007 to 8.92371e-007
Heightened Def Con from 8.93311e-007 to 8.94311e-007
Heightened Def Con from 8.94311e-007 to 8.95436e-007
Heightened Def Con from 8.96376e-007 to 8.97376e-007
Heightened Def Con from 8.97376e-007 to 8.98501e-007
Heightened Def Con from 8.9944e-007 to 9.00441e-007
Heightened Def Con from 9.00441e-007 to 9.01566e-007
Heightened Def Con from 9.02505e-007 to 9.03506e-007
Heightened Def Con from 9.03506e-007 to 9.04631e-007
Heightened Def Con from 9.0557e-007 to 9.06571e-007
Heightened Def Con from 9.06571e-007 to 9.07696e-007
Heightened Def Con from 9.08635e-007 to 9.09636e-007
Heightened Def Con from 9.09636e-007 to 9.10761e-007
Heightened Def Con from 9.117e-007 to 9.12701e-007
Heightened Def Con from 9.12701e-007 to 9.13826e-007
Heightened Def Con from 9.14765e-007 to 9.15766e-007
Heightened Def Con from 9.15766e-007 to 9.16891e-007
Heightened Def Con from 9.1783e-007 to 9.1883e-007
Heightened Def Con from 9.18831e-007 to 9.19956e-007
Heightened Def Con from 9.20895e-007 to 9.21895e-007
Heightened Def Con from 9.21896e-007 to 9.23021e-007
Heightened Def Con from 9.2396e-007 to 9.2496e-007
Heightened Def Con from 9.24961e-007 to 9.26086e-007
Heightened Def Con from 9.27025e-007 to 9.28025e-007
Heightened Def Con from 9.28026e-007 to 9.29151e-007
Heightened Def Con from 9.3009e-007 to 9.3109e-007
Heightened Def Con from 9.31091e-007 to 9.32216e-007
Heightened Def Con from 9.33155e-007 to 9.34155e-007
Heightened Def Con from 9.34156e-007 to 9.35281e-007
Heightened Def Con from 9.3622e-007 to 9.3722e-007
Heightened Def Con from 9.37221e-007 to 9.38346e-007
Heightened Def Con from 9.39285e-007 to 9.40285e-007
Heightened Def Con from 9.40286e-007 to 9.41411e-007
Heightened Def Con from 9.4235e-007 to 9.4335e-007
Heightened Def Con from 9.43351e-007 to 9.44476e-007
Heightened Def Con from 9.45415e-007 to 9.46415e-007
Heightened Def Con from 9.46416e-007 to 9.47541e-007
Heightened Def Con from 9.4848e-007 to 9.4948e-007
Heightened Def Con from 9.49481e-007 to 9.50606e-007
Heightened Def Con from 9.51545e-007 to 9.52545e-007
Heightened Def Con from 9.52546e-007 to 9.53671e-007
Heightened Def Con from 9.5461e-007 to 9.5561e-007
Heightened Def Con from 9.55611e-007 to 9.56736e-007
Heightened Def Con from 9.57675e-007 to 9.58675e-007
Heightened Def Con from 9.58676e-007 to 9.59801e-007
Heightened Def Con from 9.6074e-007 to 9.6174e-007
Heightened Def Con from 9.61741e-007 to 9.62866e-007
Heightened Def Con from 9.63805e-007 to 9.64805e-007
Heightened Def Con from 9.64806e-007 to 9.65931e-007
Heightened Def Con from 9.6687e-007 to 9.6787e-007
Heightened Def Con from 9.67871e-007 to 9.68996e-007
Heightened Def Con from 9.69935e-007 to 9.70935e-007
Heightened Def Con from 9.70936e-007 to 9.72061e-007
Heightened Def Con from 9.73e-007 to 9.74e-007
Heightened Def Con from 9.74e-007 to 9.75125e-007
Heightened Def Con from 9.76065e-007 to 9.77065e-007
Heightened Def Con from 9.77065e-007 to 9.7819e-007
Heightened Def Con from 9.7913e-007 to 9.8013e-007
Heightened Def Con from 9.8013e-007 to 9.81255e-007
Heightened Def Con from 9.82195e-007 to 9.83195e-007
Heightened Def Con from 9.83195e-007 to 9.8432e-007
Heightened Def Con from 9.8526e-007 to 9.8626e-007
Heightened Def Con from 9.8626e-007 to 9.87385e-007
Heightened Def Con from 9.88324e-007 to 9.89325e-007
Heightened Def Con from 9.89325e-007 to 9.9045e-007
Heightened Def Con from 9.91389e-007 to 9.9239e-007
Heightened Def Con from 9.9239e-007 to 9.93515e-007
Heightened Def Con from 9.94454e-007 to 9.95455e-007
Heightened Def Con from 9.95455e-007 to 9.9658e-007
Heightened Def Con from 9.97519e-007 to 9.9852e-007
Heightened Def Con from 9.9852e-007 to 9.99645e-007
Heightened Def Con from 1.00058e-006 to 1.00158e-006
Heightened Def Con from 1.00159e-006 to 1.00271e-006
Heightened Def Con from 1.00365e-006 to 1.00465e-006
Heightened Def Con from 1.00465e-006 to 1.00578e-006
Heightened Def Con from 1.00671e-006 to 1.00771e-006
Heightened Def Con from 1.00772e-006 to 1.00884e-006
Heightened Def Con from 1.00978e-006 to 1.01078e-006
Heightened Def Con from 1.01078e-006 to 1.01191e-006
Heightened Def Con from 1.01284e-006 to 1.01384e-006
Heightened Def Con from 1.01385e-006 to 1.01497e-006
Heightened Def Con from 1.01591e-006 to 1.01691e-006
Heightened Def Con from 1.01691e-006 to 1.01804e-006
Heightened Def Con from 1.01897e-006 to 1.01997e-006
Heightened Def Con from 1.01998e-006 to 1.0211e-006
Heightened Def Con from 1.02204e-006 to 1.02304e-006
Heightened Def Con from 1.02304e-006 to 1.02417e-006
Heightened Def Con from 1.0251e-006 to 1.0261e-006
Heightened Def Con from 1.02611e-006 to 1.02723e-006
Heightened Def Con from 1.02817e-006 to 1.02917e-006
Heightened Def Con from 1.02917e-006 to 1.0303e-006
Heightened Def Con from 1.03123e-006 to 1.03223e-006
Heightened Def Con from 1.03224e-006 to 1.03336e-006
Heightened Def Con from 1.0343e-006 to 1.0353e-006
Heightened Def Con from 1.0353e-006 to 1.03642e-006
Heightened Def Con from 1.03736e-006 to 1.03836e-006
Heightened Def Con from 1.03836e-006 to 1.03949e-006
Heightened Def Con from 1.04043e-006 to 1.04143e-006
Heightened Def Con from 1.04143e-006 to 1.04255e-006
Heightened Def Con from 1.04349e-006 to 1.04449e-006
Heightened Def Con from 1.04449e-006 to 1.04562e-006
Heightened Def Con from 1.04656e-006 to 1.04756e-006
Heightened Def Con from 1.04756e-006 to 1.04868e-006
Heightened Def Con from 1.04962e-006 to 1.05062e-006
Heightened Def Con from 1.05062e-006 to 1.05175e-006
Heightened Def Con from 1.05269e-006 to 1.05369e-006
Heightened Def Con from 1.05369e-006 to 1.05481e-006
Heightened Def Con from 1.05575e-006 to 1.05675e-006
Heightened Def Con from 1.05675e-006 to 1.05788e-006
Heightened Def Con from 1.05882e-006 to 1.05982e-006
Heightened Def Con from 1.05982e-006 to 1.06094e-006
Heightened Def Con from 1.06188e-006 to 1.06288e-006
Heightened Def Con from 1.06288e-006 to 1.06401e-006
Heightened Def Con from 1.06495e-006 to 1.06595e-006
Heightened Def Con from 1.06595e-006 to 1.06707e-006
Heightened Def Con from 1.06801e-006 to 1.06901e-006
Heightened Def Con from 1.06901e-006 to 1.07014e-006
Heightened Def Con from 1.07108e-006 to 1.07208e-006
Heightened Def Con from 1.07208e-006 to 1.0732e-006
Heightened Def Con from 1.07414e-006 to 1.07514e-006
Heightened Def Con from 1.07514e-006 to 1.07627e-006
Heightened Def Con from 1.07721e-006 to 1.07821e-006
Heightened Def Con from 1.07821e-006 to 1.07933e-006
Heightened Def Con from 1.08027e-006 to 1.08127e-006
Heightened Def Con from 1.08127e-006 to 1.0824e-006
Heightened Def Con from 1.08334e-006 to 1.08434e-006
Heightened Def Con from 1.08434e-006 to 1.08546e-006
Heightened Def Con from 1.0864e-006 to 1.0874e-006
Heightened Def Con from 1.0874e-006 to 1.08853e-006
Heightened Def Con from 1.08947e-006 to 1.09047e-006
Heightened Def Con from 1.09047e-006 to 1.09159e-006
Heightened Def Con from 1.09253e-006 to 1.09353e-006
Heightened Def Con from 1.09353e-006 to 1.09466e-006
Heightened Def Con from 1.0956e-006 to 1.0966e-006
Heightened Def Con from 1.0966e-006 to 1.09772e-006
Heightened Def Con from 1.09866e-006 to 1.09966e-006
Heightened Def Con from 1.09966e-006 to 1.10079e-006
Heightened Def Con from 1.10173e-006 to 1.10273e-006
Heightened Def Con from 1.10273e-006 to 1.10385e-006
Heightened Def Con from 1.10479e-006 to 1.10579e-006
Heightened Def Con from 1.10579e-006 to 1.10692e-006
Heightened Def Con from 1.10786e-006 to 1.10886e-006
Heightened Def Con from 1.10886e-006 to 1.10998e-006
Heightened Def Con from 1.11092e-006 to 1.11192e-006
Heightened Def Con from 1.11192e-006 to 1.11305e-006
Heightened Def Con from 1.11399e-006 to 1.11499e-006
Heightened Def Con from 1.11499e-006 to 1.11611e-006
Heightened Def Con from 1.11705e-006 to 1.11805e-006
Heightened Def Con from 1.11805e-006 to 1.11918e-006
Heightened Def Con from 1.12012e-006 to 1.12112e-006
Heightened Def Con from 1.12112e-006 to 1.12224e-006
Heightened Def Con from 1.12318e-006 to 1.12418e-006
Heightened Def Con from 1.12418e-006 to 1.12531e-006
Heightened Def Con from 1.12625e-006 to 1.12725e-006
Heightened Def Con from 1.12725e-006 to 1.12837e-006
Heightened Def Con from 1.12931e-006 to 1.13031e-006
Heightened Def Con from 1.13031e-006 to 1.13144e-006
Heightened Def Con from 1.13238e-006 to 1.13338e-006
Heightened Def Con from 1.13338e-006 to 1.1345e-006
Heightened Def Con from 1.13544e-006 to 1.13644e-006
Heightened Def Con from 1.13644e-006 to 1.13757e-006
Heightened Def Con from 1.13851e-006 to 1.13951e-006
Heightened Def Con from 1.13951e-006 to 1.14063e-006
Heightened Def Con from 1.14157e-006 to 1.14257e-006
Heightened Def Con from 1.14257e-006 to 1.1437e-006
Heightened Def Con from 1.14464e-006 to 1.14564e-006
Heightened Def Con from 1.14564e-006 to 1.14676e-006
Heightened Def Con from 1.1477e-006 to 1.1487e-006
Heightened Def Con from 1.1487e-006 to 1.14983e-006
Heightened Def Con from 1.15077e-006 to 1.15177e-006
Heightened Def Con from 1.15177e-006 to 1.15289e-006
Heightened Def Con from 1.15383e-006 to 1.15483e-006
Heightened Def Con from 1.15483e-006 to 1.15596e-006
Heightened Def Con from 1.1569e-006 to 1.1579e-006
Heightened Def Con from 1.1579e-006 to 1.15902e-006
Heightened Def Con from 1.15996e-006 to 1.16096e-006
Heightened Def Con from 1.16096e-006 to 1.16209e-006
Heightened Def Con from 1.16303e-006 to 1.16403e-006
Heightened Def Con from 1.16403e-006 to 1.16515e-006
Heightened Def Con from 1.16609e-006 to 1.16709e-006
Heightened Def Con from 1.16709e-006 to 1.16822e-006
Heightened Def Con from 1.16916e-006 to 1.17016e-006
Heightened Def Con from 1.17016e-006 to 1.17128e-006
Heightened Def Con from 1.17222e-006 to 1.17322e-006
Heightened Def Con from 1.17322e-006 to 1.17435e-006
Heightened Def Con from 1.17529e-006 to 1.17629e-006
Heightened Def Con from 1.17629e-006 to 1.17741e-006
Heightened Def Con from 1.17835e-006 to 1.17935e-006
Heightened Def Con from 1.17935e-006 to 1.18048e-006
Heightened Def Con from 1.18142e-006 to 1.18242e-006
Heightened Def Con from 1.18242e-006 to 1.18354e-006
Heightened Def Con from 1.18448e-006 to 1.18548e-006
Heightened Def Con from 1.18548e-006 to 1.18661e-006
Heightened Def Con from 1.18755e-006 to 1.18855e-006
Heightened Def Con from 1.18855e-006 to 1.18967e-006
Heightened Def Con from 1.19061e-006 to 1.19161e-006
Heightened Def Con from 1.19161e-006 to 1.19274e-006
Heightened Def Con from 1.19368e-006 to 1.19468e-006
Heightened Def Con from 1.19468e-006 to 1.1958e-006
Heightened Def Con from 1.19674e-006 to 1.19774e-006
Heightened Def Con from 1.19774e-006 to 1.19887e-006
Heightened Def Con from 1.19981e-006 to 1.20081e-006
Heightened Def Con from 1.20081e-006 to 1.20193e-006
Heightened Def Con from 1.20287e-006 to 1.20387e-006
Heightened Def Con from 1.20387e-006 to 1.205e-006
Heightened Def Con from 1.20594e-006 to 1.20694e-006
Heightened Def Con from 1.20694e-006 to 1.20806e-006
Heightened Def Con from 1.209e-006 to 1.21e-006
Heightened Def Con from 1.21e-006 to 1.21113e-006
Heightened Def Con from 1.21207e-006 to 1.21307e-006
Heightened Def Con from 1.21307e-006 to 1.21419e-006
Heightened Def Con from 1.21513e-006 to 1.21613e-006
Heightened Def Con from 1.21613e-006 to 1.21726e-006
Heightened Def Con from 1.2182e-006 to 1.2192e-006
Heightened Def Con from 1.2192e-006 to 1.22032e-006
Heightened Def Con from 1.22126e-006 to 1.22226e-006
Heightened Def Con from 1.22226e-006 to 1.22339e-006
Heightened Def Con from 1.22433e-006 to 1.22533e-006
Heightened Def Con from 1.22533e-006 to 1.22645e-006
Heightened Def Con from 1.22739e-006 to 1.22839e-006
Heightened Def Con from 1.22839e-006 to 1.22952e-006
Heightened Def Con from 1.23046e-006 to 1.23146e-006
Heightened Def Con from 1.23146e-006 to 1.23258e-006
Heightened Def Con from 1.23352e-006 to 1.23452e-006
Heightened Def Con from 1.23452e-006 to 1.23565e-006
Heightened Def Con from 1.23659e-006 to 1.23759e-006
Heightened Def Con from 1.23759e-006 to 1.23871e-006
Heightened Def Con from 1.23965e-006 to 1.24065e-006
Heightened Def Con from 1.24065e-006 to 1.24178e-006
Heightened Def Con from 1.24272e-006 to 1.24372e-006
Heightened Def Con from 1.24372e-006 to 1.24484e-006
Heightened Def Con from 1.24578e-006 to 1.24678e-006
Heightened Def Con from 1.24678e-006 to 1.24791e-006
Heightened Def Con from 1.24885e-006 to 1.24985e-006
Heightened Def Con from 1.24985e-006 to 1.25097e-006
Heightened Def Con from 1.25191e-006 to 1.25291e-006
Heightened Def Con from 1.25291e-006 to 1.25404e-006
Heightened Def Con from 1.25498e-006 to 1.25598e-006
Heightened Def Con from 1.25598e-006 to 1.2571e-006
Heightened Def Con from 1.25804e-006 to 1.25904e-006
Heightened Def Con from 1.25904e-006 to 1.26017e-006
Heightened Def Con from 1.26111e-006 to 1.26211e-006
Heightened Def Con from 1.26211e-006 to 1.26323e-006
Heightened Def Con from 1.26417e-006 to 1.26517e-006
Heightened Def Con from 1.26517e-006 to 1.2663e-006
Heightened Def Con from 1.26724e-006 to 1.26824e-006
Heightened Def Con from 1.26824e-006 to 1.26936e-006
Heightened Def Con from 1.2703e-006 to 1.2713e-006
Heightened Def Con from 1.2713e-006 to 1.27243e-006
Heightened Def Con from 1.27337e-006 to 1.27437e-006
Heightened Def Con from 1.27437e-006 to 1.27549e-006
Heightened Def Con from 1.27643e-006 to 1.27743e-006
Heightened Def Con from 1.27743e-006 to 1.27856e-006
Heightened Def Con from 1.2795e-006 to 1.2805e-006
Heightened Def Con from 1.2805e-006 to 1.28162e-006
Heightened Def Con from 1.28256e-006 to 1.28356e-006
Heightened Def Con from 1.28356e-006 to 1.28469e-006
Heightened Def Con from 1.28563e-006 to 1.28663e-006
Heightened Def Con from 1.28663e-006 to 1.28775e-006
Heightened Def Con from 1.28869e-006 to 1.28969e-006
Heightened Def Con from 1.28969e-006 to 1.29082e-006
Heightened Def Con from 1.29176e-006 to 1.29276e-006
Heightened Def Con from 1.29276e-006 to 1.29388e-006
Heightened Def Con from 1.29482e-006 to 1.29582e-006
Heightened Def Con from 1.29582e-006 to 1.29695e-006
Heightened Def Con from 1.29789e-006 to 1.29889e-006
Heightened Def Con from 1.29889e-006 to 1.30001e-006
Heightened Def Con from 1.30095e-006 to 1.30195e-006
Heightened Def Con from 1.30195e-006 to 1.30308e-006
Heightened Def Con from 1.30402e-006 to 1.30502e-006
Heightened Def Con from 1.30502e-006 to 1.30614e-006
Heightened Def Con from 1.30708e-006 to 1.30808e-006
Heightened Def Con from 1.30808e-006 to 1.30921e-006
Heightened Def Con from 1.31015e-006 to 1.31115e-006
Heightened Def Con from 1.31115e-006 to 1.31227e-006
Heightened Def Con from 1.31321e-006 to 1.31421e-006
Heightened Def Con from 1.31421e-006 to 1.31534e-006
Heightened Def Con from 1.31628e-006 to 1.31728e-006
Heightened Def Con from 1.31728e-006 to 1.3184e-006
Heightened Def Con from 1.31934e-006 to 1.32034e-006
Heightened Def Con from 1.32034e-006 to 1.32147e-006
Heightened Def Con from 1.32241e-006 to 1.32341e-006
Heightened Def Con from 1.32341e-006 to 1.32453e-006
Heightened Def Con from 1.32547e-006 to 1.32647e-006
Heightened Def Con from 1.32647e-006 to 1.3276e-006
Heightened Def Con from 1.32854e-006 to 1.32954e-006
Heightened Def Con from 1.32954e-006 to 1.33066e-006
Heightened Def Con from 1.3316e-006 to 1.3326e-006
Heightened Def Con from 1.3326e-006 to 1.33373e-006
Heightened Def Con from 1.33467e-006 to 1.33567e-006
Heightened Def Con from 1.33567e-006 to 1.3368e-006
Heightened Def Con from 1.33773e-006 to 1.33873e-006
Heightened Def Con from 1.33874e-006 to 1.33986e-006
Heightened Def Con from 1.3408e-006 to 1.3418e-006
Heightened Def Con from 1.3418e-006 to 1.34293e-006
Heightened Def Con from 1.34386e-006 to 1.34486e-006
Heightened Def Con from 1.34487e-006 to 1.34599e-006
Heightened Def Con from 1.34693e-006 to 1.34793e-006
Heightened Def Con from 1.34793e-006 to 1.34906e-006
Heightened Def Con from 1.34999e-006 to 1.35099e-006
Heightened Def Con from 1.351e-006 to 1.35212e-006
Heightened Def Con from 1.35306e-006 to 1.35406e-006
Heightened Def Con from 1.35406e-006 to 1.35519e-006
Heightened Def Con from 1.35612e-006 to 1.35712e-006
Heightened Def Con from 1.35713e-006 to 1.35825e-006
Heightened Def Con from 1.35919e-006 to 1.36019e-006
Heightened Def Con from 1.36019e-006 to 1.36132e-006
Heightened Def Con from 1.36225e-006 to 1.36325e-006
Heightened Def Con from 1.36326e-006 to 1.36438e-006
Heightened Def Con from 1.36532e-006 to 1.36632e-006
Heightened Def Con from 1.36632e-006 to 1.36745e-006
Heightened Def Con from 1.36838e-006 to 1.36938e-006
Heightened Def Con from 1.36939e-006 to 1.37051e-006
Heightened Def Con from 1.37145e-006 to 1.37245e-006
Heightened Def Con from 1.37245e-006 to 1.37358e-006
Heightened Def Con from 1.37451e-006 to 1.37551e-006
Heightened Def Con from 1.37552e-006 to 1.37664e-006
Heightened Def Con from 1.37758e-006 to 1.37858e-006
Heightened Def Con from 1.37858e-006 to 1.37971e-006
Heightened Def Con from 1.38064e-006 to 1.38164e-006
Heightened Def Con from 1.38165e-006 to 1.38277e-006
Heightened Def Con from 1.38371e-006 to 1.38471e-006
Heightened Def Con from 1.38471e-006 to 1.38584e-006
Heightened Def Con from 1.38677e-006 to 1.38777e-006
Heightened Def Con from 1.38778e-006 to 1.3889e-006
Heightened Def Con from 1.38984e-006 to 1.39084e-006
Heightened Def Con from 1.39084e-006 to 1.39197e-006
Heightened Def Con from 1.3929e-006 to 1.3939e-006
Heightened Def Con from 1.39391e-006 to 1.39503e-006
Heightened Def Con from 1.39597e-006 to 1.39697e-006
Heightened Def Con from 1.39697e-006 to 1.3981e-006
Heightened Def Con from 1.39903e-006 to 1.40003e-006
Heightened Def Con from 1.40004e-006 to 1.40116e-006
Heightened Def Con from 1.4021e-006 to 1.4031e-006
Heightened Def Con from 1.4031e-006 to 1.40423e-006
Heightened Def Con from 1.40516e-006 to 1.40616e-006
Heightened Def Con from 1.40617e-006 to 1.40729e-006
Heightened Def Con from 1.40823e-006 to 1.40923e-006
Heightened Def Con from 1.40923e-006 to 1.41036e-006
Heightened Def Con from 1.41129e-006 to 1.4123e-006
Heightened Def Con from 1.4123e-006 to 1.41342e-006
Heightened Def Con from 1.41436e-006 to 1.41536e-006
Heightened Def Con from 1.41536e-006 to 1.41649e-006
Heightened Def Con from 1.41742e-006 to 1.41843e-006
Heightened Def Con from 1.41843e-006 to 1.41955e-006
Heightened Def Con from 1.42049e-006 to 1.42149e-006
Heightened Def Con from 1.42149e-006 to 1.42262e-006
Heightened Def Con from 1.42355e-006 to 1.42456e-006
Heightened Def Con from 1.42456e-006 to 1.42568e-006
Heightened Def Con from 1.42662e-006 to 1.42762e-006
Heightened Def Con from 1.42762e-006 to 1.42875e-006
Heightened Def Con from 1.42968e-006 to 1.43069e-006
Heightened Def Con from 1.43069e-006 to 1.43181e-006
Heightened Def Con from 1.43275e-006 to 1.43375e-006
Heightened Def Con from 1.43375e-006 to 1.43488e-006
Heightened Def Con from 1.43582e-006 to 1.43682e-006
Heightened Def Con from 1.43682e-006 to 1.43794e-006
Heightened Def Con from 1.43888e-006 to 1.43988e-006
Heightened Def Con from 1.43988e-006 to 1.44101e-006
Heightened Def Con from 1.44195e-006 to 1.44295e-006
Heightened Def Con from 1.44295e-006 to 1.44407e-006
Heightened Def Con from 1.44501e-006 to 1.44601e-006
Heightened Def Con from 1.44601e-006 to 1.44714e-006
Heightened Def Con from 1.44808e-006 to 1.44908e-006
Heightened Def Con from 1.44908e-006 to 1.4502e-006
Heightened Def Con from 1.45114e-006 to 1.45214e-006
Heightened Def Con from 1.45214e-006 to 1.45327e-006
Heightened Def Con from 1.45421e-006 to 1.45521e-006
Heightened Def Con from 1.45521e-006 to 1.45633e-006
Heightened Def Con from 1.45727e-006 to 1.45827e-006
Heightened Def Con from 1.45827e-006 to 1.4594e-006
Heightened Def Con from 1.46034e-006 to 1.46134e-006
Heightened Def Con from 1.46134e-006 to 1.46246e-006
Heightened Def Con from 1.4634e-006 to 1.4644e-006
Heightened Def Con from 1.4644e-006 to 1.46553e-006
Heightened Def Con from 1.46647e-006 to 1.46747e-006
Heightened Def Con from 1.46747e-006 to 1.46859e-006
Heightened Def Con from 1.46953e-006 to 1.47053e-006
Heightened Def Con from 1.47053e-006 to 1.47166e-006
Heightened Def Con from 1.4726e-006 to 1.4736e-006
Heightened Def Con from 1.4736e-006 to 1.47472e-006
Heightened Def Con from 1.47566e-006 to 1.47666e-006
Heightened Def Con from 1.47666e-006 to 1.47779e-006
Heightened Def Con from 1.47873e-006 to 1.47973e-006
Heightened Def Con from 1.47973e-006 to 1.48085e-006
Heightened Def Con from 1.48179e-006 to 1.48279e-006
Heightened Def Con from 1.48279e-006 to 1.48392e-006
Heightened Def Con from 1.48486e-006 to 1.48586e-006
Heightened Def Con from 1.48586e-006 to 1.48698e-006
Heightened Def Con from 1.48792e-006 to 1.48892e-006
Heightened Def Con from 1.48892e-006 to 1.49005e-006
Heightened Def Con from 1.49099e-006 to 1.49199e-006
Heightened Def Con from 1.49199e-006 to 1.49311e-006
Heightened Def Con from 1.49405e-006 to 1.49505e-006
Heightened Def Con from 1.49505e-006 to 1.49618e-006
Heightened Def Con from 1.49712e-006 to 1.49812e-006
Heightened Def Con from 1.49812e-006 to 1.49924e-006
Heightened Def Con from 1.50018e-006 to 1.50118e-006
Heightened Def Con from 1.50118e-006 to 1.50231e-006
Heightened Def Con from 1.50325e-006 to 1.50425e-006
Heightened Def Con from 1.50425e-006 to 1.50537e-006
Heightened Def Con from 1.50631e-006 to 1.50731e-006
Heightened Def Con from 1.50731e-006 to 1.50844e-006
Heightened Def Con from 1.50938e-006 to 1.51038e-006
Heightened Def Con from 1.51038e-006 to 1.5115e-006
Heightened Def Con from 1.51244e-006 to 1.51344e-006
Heightened Def Con from 1.51344e-006 to 1.51457e-006
Heightened Def Con from 1.51551e-006 to 1.51651e-006
Heightened Def Con from 1.51651e-006 to 1.51763e-006
Heightened Def Con from 1.51857e-006 to 1.51957e-006
Heightened Def Con from 1.51957e-006 to 1.5207e-006
Heightened Def Con from 1.52164e-006 to 1.52264e-006
Heightened Def Con from 1.52264e-006 to 1.52376e-006
Heightened Def Con from 1.5247e-006 to 1.5257e-006
Heightened Def Con from 1.5257e-006 to 1.52683e-006
Heightened Def Con from 1.52777e-006 to 1.52877e-006
Heightened Def Con from 1.52877e-006 to 1.52989e-006
Heightened Def Con from 1.53083e-006 to 1.53183e-006
Heightened Def Con from 1.53183e-006 to 1.53296e-006
Heightened Def Con from 1.5339e-006 to 1.5349e-006
Heightened Def Con from 1.5349e-006 to 1.53602e-006
Heightened Def Con from 1.53696e-006 to 1.53796e-006
Heightened Def Con from 1.53796e-006 to 1.53909e-006
Heightened Def Con from 1.54003e-006 to 1.54103e-006
Heightened Def Con from 1.54103e-006 to 1.54215e-006
Heightened Def Con from 1.54309e-006 to 1.54409e-006
Heightened Def Con from 1.54409e-006 to 1.54522e-006
Heightened Def Con from 1.54616e-006 to 1.54716e-006
Heightened Def Con from 1.54716e-006 to 1.54828e-006
Heightened Def Con from 1.54922e-006 to 1.55022e-006
Heightened Def Con from 1.55022e-006 to 1.55135e-006
Heightened Def Con from 1.55229e-006 to 1.55329e-006
Heightened Def Con from 1.55329e-006 to 1.55441e-006
Heightened Def Con from 1.55535e-006 to 1.55635e-006
Heightened Def Con from 1.55635e-006 to 1.55748e-006
Heightened Def Con from 1.55842e-006 to 1.55942e-006
Heightened Def Con from 1.55942e-006 to 1.56054e-006
Heightened Def Con from 1.56148e-006 to 1.56248e-006
Heightened Def Con from 1.56248e-006 to 1.56361e-006
Heightened Def Con from 1.56455e-006 to 1.56555e-006
Heightened Def Con from 1.56555e-006 to 1.56667e-006
Heightened Def Con from 1.56761e-006 to 1.56861e-006
Heightened Def Con from 1.56861e-006 to 1.56974e-006
Heightened Def Con from 1.57068e-006 to 1.57168e-006
Heightened Def Con from 1.57168e-006 to 1.5728e-006
Heightened Def Con from 1.57374e-006 to 1.57474e-006
Heightened Def Con from 1.57474e-006 to 1.57587e-006
Heightened Def Con from 1.57681e-006 to 1.57781e-006
Heightened Def Con from 1.57781e-006 to 1.57893e-006
Heightened Def Con from 1.57987e-006 to 1.58087e-006
Heightened Def Con from 1.58087e-006 to 1.582e-006
Heightened Def Con from 1.58294e-006 to 1.58394e-006
Heightened Def Con from 1.58394e-006 to 1.58506e-006
Heightened Def Con from 1.586e-006 to 1.587e-006
Heightened Def Con from 1.587e-006 to 1.58813e-006
Heightened Def Con from 1.58907e-006 to 1.59007e-006
Heightened Def Con from 1.59007e-006 to 1.59119e-006
Heightened Def Con from 1.59213e-006 to 1.59313e-006
Heightened Def Con from 1.59313e-006 to 1.59426e-006
Heightened Def Con from 1.5952e-006 to 1.5962e-006
Heightened Def Con from 1.5962e-006 to 1.59732e-006
Heightened Def Con from 1.59826e-006 to 1.59926e-006
Heightened Def Con from 1.59926e-006 to 1.60039e-006
Heightened Def Con from 1.60133e-006 to 1.60233e-006
Heightened Def Con from 1.60233e-006 to 1.60345e-006
Heightened Def Con from 1.60439e-006 to 1.60539e-006
Heightened Def Con from 1.60539e-006 to 1.60652e-006
Heightened Def Con from 1.60746e-006 to 1.60846e-006
Heightened Def Con from 1.60846e-006 to 1.60958e-006
Heightened Def Con from 1.61052e-006 to 1.61152e-006
Heightened Def Con from 1.61152e-006 to 1.61265e-006
Heightened Def Con from 1.61359e-006 to 1.61459e-006
Heightened Def Con from 1.61459e-006 to 1.61571e-006
Heightened Def Con from 1.61665e-006 to 1.61765e-006
Heightened Def Con from 1.61765e-006 to 1.61878e-006
Heightened Def Con from 1.61972e-006 to 1.62072e-006
Heightened Def Con from 1.62072e-006 to 1.62184e-006
Heightened Def Con from 1.62278e-006 to 1.62378e-006
Heightened Def Con from 1.62378e-006 to 1.62491e-006
Heightened Def Con from 1.62585e-006 to 1.62685e-006
Heightened Def Con from 1.62685e-006 to 1.62797e-006
Heightened Def Con from 1.62891e-006 to 1.62991e-006
Heightened Def Con from 1.62991e-006 to 1.63104e-006
Heightened Def Con from 1.63198e-006 to 1.63298e-006
Heightened Def Con from 1.63298e-006 to 1.6341e-006
Heightened Def Con from 1.63504e-006 to 1.63604e-006
Heightened Def Con from 1.63604e-006 to 1.63717e-006
Heightened Def Con from 1.63811e-006 to 1.63911e-006
Heightened Def Con from 1.63911e-006 to 1.64023e-006
Heightened Def Con from 1.64117e-006 to 1.64217e-006
Heightened Def Con from 1.64217e-006 to 1.6433e-006
Heightened Def Con from 1.64424e-006 to 1.64524e-006
Heightened Def Con from 1.64524e-006 to 1.64636e-006
Heightened Def Con from 1.6473e-006 to 1.6483e-006
Heightened Def Con from 1.6483e-006 to 1.64943e-006
Heightened Def Con from 1.65037e-006 to 1.65137e-006
Heightened Def Con from 1.65137e-006 to 1.65249e-006
Heightened Def Con from 1.65343e-006 to 1.65443e-006
Heightened Def Con from 1.65443e-006 to 1.65556e-006
Heightened Def Con from 1.6565e-006 to 1.6575e-006
Heightened Def Con from 1.6575e-006 to 1.65862e-006
Heightened Def Con from 1.65956e-006 to 1.66056e-006
Heightened Def Con from 1.66056e-006 to 1.66169e-006
Heightened Def Con from 1.66263e-006 to 1.66363e-006
Heightened Def Con from 1.66363e-006 to 1.66475e-006
Heightened Def Con from 1.66569e-006 to 1.66669e-006
Heightened Def Con from 1.66669e-006 to 1.66782e-006
Heightened Def Con from 1.66876e-006 to 1.66976e-006
Heightened Def Con from 1.66976e-006 to 1.67088e-006
Heightened Def Con from 1.67182e-006 to 1.67282e-006
Heightened Def Con from 1.67282e-006 to 1.67395e-006
Heightened Def Con from 1.67489e-006 to 1.67589e-006
Heightened Def Con from 1.67589e-006 to 1.67701e-006
Heightened Def Con from 1.67795e-006 to 1.67895e-006
Heightened Def Con from 1.67895e-006 to 1.68008e-006
Heightened Def Con from 1.68102e-006 to 1.68202e-006
Heightened Def Con from 1.68202e-006 to 1.68314e-006
Heightened Def Con from 1.68408e-006 to 1.68508e-006
Heightened Def Con from 1.68508e-006 to 1.68621e-006
Heightened Def Con from 1.68715e-006 to 1.68815e-006
Heightened Def Con from 1.68815e-006 to 1.68927e-006
Heightened Def Con from 1.69021e-006 to 1.69121e-006
Heightened Def Con from 1.69121e-006 to 1.69234e-006
Heightened Def Con from 1.69328e-006 to 1.69428e-006
Heightened Def Con from 1.69428e-006 to 1.6954e-006
Heightened Def Con from 1.69634e-006 to 1.69734e-006
Heightened Def Con from 1.69735e-006 to 1.69847e-006
Heightened Def Con from 1.69941e-006 to 1.70041e-006
Heightened Def Con from 1.70041e-006 to 1.70154e-006
Heightened Def Con from 1.70247e-006 to 1.70347e-006
Heightened Def Con from 1.70348e-006 to 1.7046e-006
Heightened Def Con from 1.70554e-006 to 1.70654e-006
Heightened Def Con from 1.70654e-006 to 1.70767e-006
Heightened Def Con from 1.7086e-006 to 1.7096e-006
Heightened Def Con from 1.70961e-006 to 1.71073e-006
Heightened Def Con from 1.71167e-006 to 1.71267e-006
Heightened Def Con from 1.71267e-006 to 1.7138e-006
Heightened Def Con from 1.71473e-006 to 1.71573e-006
Heightened Def Con from 1.71574e-006 to 1.71686e-006
Heightened Def Con from 1.7178e-006 to 1.7188e-006
Heightened Def Con from 1.7188e-006 to 1.71993e-006
Heightened Def Con from 1.72086e-006 to 1.72186e-006
Heightened Def Con from 1.72187e-006 to 1.72299e-006
Heightened Def Con from 1.72393e-006 to 1.72493e-006
Heightened Def Con from 1.72493e-006 to 1.72606e-006
Heightened Def Con from 1.72699e-006 to 1.728e-006
Heightened Def Con from 1.728e-006 to 1.72912e-006
Heightened Def Con from 1.73006e-006 to 1.73106e-006
Heightened Def Con from 1.73106e-006 to 1.73219e-006
Heightened Def Con from 1.73312e-006 to 1.73413e-006
Heightened Def Con from 1.73413e-006 to 1.73525e-006
Heightened Def Con from 1.73619e-006 to 1.73719e-006
Heightened Def Con from 1.73719e-006 to 1.73832e-006
Heightened Def Con from 1.73926e-006 to 1.74026e-006
Heightened Def Con from 1.74026e-006 to 1.74138e-006
Heightened Def Con from 1.74232e-006 to 1.74332e-006
Heightened Def Con from 1.74332e-006 to 1.74445e-006
Heightened Def Con from 1.74539e-006 to 1.74639e-006
Heightened Def Con from 1.74639e-006 to 1.74751e-006
Heightened Def Con from 1.74845e-006 to 1.74945e-006
Heightened Def Con from 1.74945e-006 to 1.75058e-006
Heightened Def Con from 1.75152e-006 to 1.75252e-006
Heightened Def Con from 1.75252e-006 to 1.75364e-006
Heightened Def Con from 1.75458e-006 to 1.75558e-006
Heightened Def Con from 1.75558e-006 to 1.75671e-006
Heightened Def Con from 1.75765e-006 to 1.75865e-006
Heightened Def Con from 1.75865e-006 to 1.75977e-006
Heightened Def Con from 1.76071e-006 to 1.76171e-006
Heightened Def Con from 1.76171e-006 to 1.76284e-006
Heightened Def Con from 1.76378e-006 to 1.76478e-006
Heightened Def Con from 1.76478e-006 to 1.7659e-006
Heightened Def Con from 1.76684e-006 to 1.76784e-006
Heightened Def Con from 1.76784e-006 to 1.76897e-006
Heightened Def Con from 1.76991e-006 to 1.77091e-006
Heightened Def Con from 1.77091e-006 to 1.77203e-006
Heightened Def Con from 1.77297e-006 to 1.77397e-006
Heightened Def Con from 1.77397e-006 to 1.7751e-006
Heightened Def Con from 1.77604e-006 to 1.77704e-006
Heightened Def Con from 1.77704e-006 to 1.77816e-006
Heightened Def Con from 1.7791e-006 to 1.7801e-006
Heightened Def Con from 1.7801e-006 to 1.78123e-006
Heightened Def Con from 1.78217e-006 to 1.78317e-006
Heightened Def Con from 1.78317e-006 to 1.78429e-006
Heightened Def Con from 1.78523e-006 to 1.78623e-006
Heightened Def Con from 1.78623e-006 to 1.78736e-006
Heightened Def Con from 1.7883e-006 to 1.7893e-006
Heightened Def Con from 1.7893e-006 to 1.79042e-006
Heightened Def Con from 1.79136e-006 to 1.79236e-006
Heightened Def Con from 1.79236e-006 to 1.79349e-006
Heightened Def Con from 1.79443e-006 to 1.79543e-006
Heightened Def Con from 1.79543e-006 to 1.79655e-006
Heightened Def Con from 1.79749e-006 to 1.79849e-006
Heightened Def Con from 1.79849e-006 to 1.79962e-006
Heightened Def Con from 1.80056e-006 to 1.80156e-006
Heightened Def Con from 1.80156e-006 to 1.80268e-006
Heightened Def Con from 1.80362e-006 to 1.80462e-006
Heightened Def Con from 1.80462e-006 to 1.80575e-006
Heightened Def Con from 1.80669e-006 to 1.80769e-006
Heightened Def Con from 1.80769e-006 to 1.80881e-006
Heightened Def Con from 1.80975e-006 to 1.81075e-006
Heightened Def Con from 1.81075e-006 to 1.81188e-006
Heightened Def Con from 1.81282e-006 to 1.81382e-006
Heightened Def Con from 1.81382e-006 to 1.81494e-006
Heightened Def Con from 1.81588e-006 to 1.81688e-006
Heightened Def Con from 1.81688e-006 to 1.81801e-006
Heightened Def Con from 1.81895e-006 to 1.81995e-006
Heightened Def Con from 1.81995e-006 to 1.82107e-006
Heightened Def Con from 1.82201e-006 to 1.82301e-006
Heightened Def Con from 1.82301e-006 to 1.82414e-006
Heightened Def Con from 1.82508e-006 to 1.82608e-006
Heightened Def Con from 1.82608e-006 to 1.8272e-006
Heightened Def Con from 1.82814e-006 to 1.82914e-006
Heightened Def Con from 1.82914e-006 to 1.83027e-006
Heightened Def Con from 1.83121e-006 to 1.83221e-006
Heightened Def Con from 1.83221e-006 to 1.83333e-006
Heightened Def Con from 1.83427e-006 to 1.83527e-006
Heightened Def Con from 1.83527e-006 to 1.8364e-006
Heightened Def Con from 1.83734e-006 to 1.83834e-006
Heightened Def Con from 1.83834e-006 to 1.83946e-006
Heightened Def Con from 1.8404e-006 to 1.8414e-006
Heightened Def Con from 1.8414e-006 to 1.84253e-006
Heightened Def Con from 1.84347e-006 to 1.84447e-006
Heightened Def Con from 1.84447e-006 to 1.84559e-006
Heightened Def Con from 1.84653e-006 to 1.84753e-006
Heightened Def Con from 1.84753e-006 to 1.84866e-006
Heightened Def Con from 1.8496e-006 to 1.8506e-006
Heightened Def Con from 1.8506e-006 to 1.85172e-006
Heightened Def Con from 1.85266e-006 to 1.85366e-006
Heightened Def Con from 1.85366e-006 to 1.85479e-006
Heightened Def Con from 1.85573e-006 to 1.85673e-006
Heightened Def Con from 1.85673e-006 to 1.85785e-006
Heightened Def Con from 1.85879e-006 to 1.85979e-006
Heightened Def Con from 1.85979e-006 to 1.86092e-006
Heightened Def Con from 1.86186e-006 to 1.86286e-006
Heightened Def Con from 1.86286e-006 to 1.86398e-006
Heightened Def Con from 1.86492e-006 to 1.86592e-006
Heightened Def Con from 1.86592e-006 to 1.86705e-006
Heightened Def Con from 1.86799e-006 to 1.86899e-006
Heightened Def Con from 1.86899e-006 to 1.87011e-006
Heightened Def Con from 1.87105e-006 to 1.87205e-006
Heightened Def Con from 1.87205e-006 to 1.87318e-006
Heightened Def Con from 1.87412e-006 to 1.87512e-006
Heightened Def Con from 1.87512e-006 to 1.87624e-006
Heightened Def Con from 1.87718e-006 to 1.87818e-006
Heightened Def Con from 1.87818e-006 to 1.87931e-006
Heightened Def Con from 1.88025e-006 to 1.88125e-006
Heightened Def Con from 1.88125e-006 to 1.88237e-006
Heightened Def Con from 1.88331e-006 to 1.88431e-006
Heightened Def Con from 1.88431e-006 to 1.88544e-006
Heightened Def Con from 1.88638e-006 to 1.88738e-006
Heightened Def Con from 1.88738e-006 to 1.8885e-006
Heightened Def Con from 1.88944e-006 to 1.89044e-006
Heightened Def Con from 1.89044e-006 to 1.89157e-006
Heightened Def Con from 1.89251e-006 to 1.89351e-006
Heightened Def Con from 1.89351e-006 to 1.89463e-006
Heightened Def Con from 1.89557e-006 to 1.89657e-006
Heightened Def Con from 1.89658e-006 to 1.8977e-006
Heightened Def Con from 1.89864e-006 to 1.89964e-006
Heightened Def Con from 1.89964e-006 to 1.90077e-006
Heightened Def Con from 1.9017e-006 to 1.9027e-006
Heightened Def Con from 1.90271e-006 to 1.90383e-006
Heightened Def Con from 1.90477e-006 to 1.90577e-006
Heightened Def Con from 1.90577e-006 to 1.9069e-006
Heightened Def Con from 1.90783e-006 to 1.90883e-006
Heightened Def Con from 1.90884e-006 to 1.90996e-006
Heightened Def Con from 1.9109e-006 to 1.9119e-006
Heightened Def Con from 1.9119e-006 to 1.91303e-006
Heightened Def Con from 1.91396e-006 to 1.91496e-006
Heightened Def Con from 1.91497e-006 to 1.91609e-006
Heightened Def Con from 1.91703e-006 to 1.91803e-006
Heightened Def Con from 1.91803e-006 to 1.91916e-006
Heightened Def Con from 1.92009e-006 to 1.9211e-006
Heightened Def Con from 1.9211e-006 to 1.92222e-006
Heightened Def Con from 1.92316e-006 to 1.92416e-006
Heightened Def Con from 1.92416e-006 to 1.92529e-006
Heightened Def Con from 1.92623e-006 to 1.92723e-006
Heightened Def Con from 1.92723e-006 to 1.92835e-006
Heightened Def Con from 1.92929e-006 to 1.93029e-006
Heightened Def Con from 1.93029e-006 to 1.93142e-006
Heightened Def Con from 1.93236e-006 to 1.93336e-006
Heightened Def Con from 1.93336e-006 to 1.93448e-006
Heightened Def Con from 1.93542e-006 to 1.93642e-006
Heightened Def Con from 1.93642e-006 to 1.93755e-006
Heightened Def Con from 1.93849e-006 to 1.93949e-006
Heightened Def Con from 1.93949e-006 to 1.94061e-006
Heightened Def Con from 1.94155e-006 to 1.94255e-006
Heightened Def Con from 1.94255e-006 to 1.94368e-006
Heightened Def Con from 1.94462e-006 to 1.94562e-006
Heightened Def Con from 1.94562e-006 to 1.94674e-006
Heightened Def Con from 1.94768e-006 to 1.94868e-006
Heightened Def Con from 1.94868e-006 to 1.94981e-006
Heightened Def Con from 1.95075e-006 to 1.95175e-006
Heightened Def Con from 1.95175e-006 to 1.95287e-006
Heightened Def Con from 1.95381e-006 to 1.95481e-006
Heightened Def Con from 1.95481e-006 to 1.95594e-006
Heightened Def Con from 1.95688e-006 to 1.95788e-006
Heightened Def Con from 1.95788e-006 to 1.959e-006
Heightened Def Con from 1.95994e-006 to 1.96094e-006
Heightened Def Con from 1.96094e-006 to 1.96207e-006
Heightened Def Con from 1.96301e-006 to 1.96401e-006
Heightened Def Con from 1.96401e-006 to 1.96513e-006
Heightened Def Con from 1.96607e-006 to 1.96707e-006
Heightened Def Con from 1.96707e-006 to 1.9682e-006
Heightened Def Con from 1.96914e-006 to 1.97014e-006
Heightened Def Con from 1.97014e-006 to 1.97126e-006
Heightened Def Con from 1.9722e-006 to 1.9732e-006
Heightened Def Con from 1.9732e-006 to 1.97433e-006
Heightened Def Con from 1.97527e-006 to 1.97627e-006
Heightened Def Con from 1.97627e-006 to 1.97739e-006
Heightened Def Con from 1.97833e-006 to 1.97933e-006
Heightened Def Con from 1.97933e-006 to 1.98046e-006
Heightened Def Con from 1.9814e-006 to 1.9824e-006
Heightened Def Con from 1.9824e-006 to 1.98352e-006
Heightened Def Con from 1.98446e-006 to 1.98546e-006
Heightened Def Con from 1.98546e-006 to 1.98659e-006
Heightened Def Con from 1.98753e-006 to 1.98853e-006
Heightened Def Con from 1.98853e-006 to 1.98965e-006
Heightened Def Con from 1.99059e-006 to 1.99159e-006
Heightened Def Con from 1.99159e-006 to 1.99272e-006
Heightened Def Con from 1.99366e-006 to 1.99466e-006
Heightened Def Con from 1.99466e-006 to 1.99578e-006
Heightened Def Con from 1.99672e-006 to 1.99772e-006
Heightened Def Con from 1.99772e-006 to 1.99885e-006
Heightened Def Con from 1.99979e-006 to 2.00079e-006
Heightened Def Con from 2.00079e-006 to 2.00191e-006
Heightened Def Con from 2.00285e-006 to 2.00385e-006
Heightened Def Con from 2.00385e-006 to 2.00498e-006
Heightened Def Con from 2.00592e-006 to 2.00692e-006
Heightened Def Con from 2.00692e-006 to 2.00804e-006
Heightened Def Con from 2.00898e-006 to 2.00998e-006
Heightened Def Con from 2.00998e-006 to 2.01111e-006
Heightened Def Con from 2.01205e-006 to 2.01305e-006
Heightened Def Con from 2.01305e-006 to 2.01417e-006
Heightened Def Con from 2.01511e-006 to 2.01611e-006
Heightened Def Con from 2.01611e-006 to 2.01724e-006
Heightened Def Con from 2.01818e-006 to 2.01918e-006
Heightened Def Con from 2.01918e-006 to 2.0203e-006
Heightened Def Con from 2.02124e-006 to 2.02224e-006
Heightened Def Con from 2.02224e-006 to 2.02337e-006
Heightened Def Con from 2.02431e-006 to 2.02531e-006
Heightened Def Con from 2.02531e-006 to 2.02643e-006
Heightened Def Con from 2.02737e-006 to 2.02837e-006
Heightened Def Con from 2.02837e-006 to 2.0295e-006
Heightened Def Con from 2.03044e-006 to 2.03144e-006
Heightened Def Con from 2.03144e-006 to 2.03256e-006
Heightened Def Con from 2.0335e-006 to 2.0345e-006
Heightened Def Con from 2.0345e-006 to 2.03563e-006
Heightened Def Con from 2.03657e-006 to 2.03757e-006
Heightened Def Con from 2.03757e-006 to 2.03869e-006
Heightened Def Con from 2.03963e-006 to 2.04063e-006
Heightened Def Con from 2.04063e-006 to 2.04176e-006
Heightened Def Con from 2.0427e-006 to 2.0437e-006
Heightened Def Con from 2.0437e-006 to 2.04482e-006
Heightened Def Con from 2.04576e-006 to 2.04676e-006
Heightened Def Con from 2.04676e-006 to 2.04789e-006
Heightened Def Con from 2.04883e-006 to 2.04983e-006
Heightened Def Con from 2.04983e-006 to 2.05095e-006
Heightened Def Con from 2.05189e-006 to 2.05289e-006
Heightened Def Con from 2.0529e-006 to 2.05402e-006
Heightened Def Con from 2.05496e-006 to 2.05596e-006
Heightened Def Con from 2.05596e-006 to 2.05709e-006
Heightened Def Con from 2.05802e-006 to 2.05902e-006
Heightened Def Con from 2.05903e-006 to 2.06015e-006
Heightened Def Con from 2.06109e-006 to 2.06209e-006
Heightened Def Con from 2.06209e-006 to 2.06322e-006
Heightened Def Con from 2.06415e-006 to 2.06515e-006
Heightened Def Con from 2.06516e-006 to 2.06628e-006
Heightened Def Con from 2.06722e-006 to 2.06822e-006
Heightened Def Con from 2.06822e-006 to 2.06935e-006
Heightened Def Con from 2.07028e-006 to 2.07129e-006
Heightened Def Con from 2.07129e-006 to 2.07241e-006
Heightened Def Con from 2.07335e-006 to 2.07435e-006
Heightened Def Con from 2.07435e-006 to 2.07548e-006
Heightened Def Con from 2.07642e-006 to 2.07742e-006
Heightened Def Con from 2.07742e-006 to 2.07854e-006
Heightened Def Con from 2.07948e-006 to 2.08048e-006
Heightened Def Con from 2.08048e-006 to 2.08161e-006
Heightened Def Con from 2.08255e-006 to 2.08355e-006
Heightened Def Con from 2.08355e-006 to 2.08467e-006
Heightened Def Con from 2.08561e-006 to 2.08661e-006
Heightened Def Con from 2.08661e-006 to 2.08774e-006
Heightened Def Con from 2.08868e-006 to 2.08968e-006
Heightened Def Con from 2.08968e-006 to 2.0908e-006
Heightened Def Con from 2.09174e-006 to 2.09274e-006
Heightened Def Con from 2.09274e-006 to 2.09387e-006
Heightened Def Con from 2.09481e-006 to 2.09581e-006
Heightened Def Con from 2.09581e-006 to 2.09693e-006
Heightened Def Con from 2.09787e-006 to 2.09887e-006
Heightened Def Con from 2.09887e-006 to 2.1e-006
Heightened Def Con from 2.10094e-006 to 2.10194e-006
Heightened Def Con from 2.10194e-006 to 2.10306e-006
Heightened Def Con from 2.104e-006 to 2.105e-006
Heightened Def Con from 2.105e-006 to 2.10613e-006
Heightened Def Con from 2.10707e-006 to 2.10807e-006
Heightened Def Con from 2.10807e-006 to 2.10919e-006
Heightened Def Con from 2.11013e-006 to 2.11113e-006
Heightened Def Con from 2.11113e-006 to 2.11226e-006
Heightened Def Con from 2.1132e-006 to 2.1142e-006
Heightened Def Con from 2.1142e-006 to 2.11532e-006
Heightened Def Con from 2.11626e-006 to 2.11726e-006
Heightened Def Con from 2.11726e-006 to 2.11839e-006
Heightened Def Con from 2.11933e-006 to 2.12033e-006
Heightened Def Con from 2.12033e-006 to 2.12145e-006
Heightened Def Con from 2.12239e-006 to 2.12339e-006
Heightened Def Con from 2.12339e-006 to 2.12452e-006
Heightened Def Con from 2.12546e-006 to 2.12646e-006
Heightened Def Con from 2.12646e-006 to 2.12758e-006
Heightened Def Con from 2.12852e-006 to 2.12952e-006
Heightened Def Con from 2.12952e-006 to 2.13065e-006
Heightened Def Con from 2.13159e-006 to 2.13259e-006
Heightened Def Con from 2.13259e-006 to 2.13371e-006
Heightened Def Con from 2.13465e-006 to 2.13565e-006
Heightened Def Con from 2.13565e-006 to 2.13678e-006
Heightened Def Con from 2.13772e-006 to 2.13872e-006
Heightened Def Con from 2.13872e-006 to 2.13984e-006
Heightened Def Con from 2.14078e-006 to 2.14178e-006
Heightened Def Con from 2.14178e-006 to 2.14291e-006
Heightened Def Con from 2.14385e-006 to 2.14485e-006
Heightened Def Con from 2.14485e-006 to 2.14597e-006
Heightened Def Con from 2.14691e-006 to 2.14791e-006
Heightened Def Con from 2.14791e-006 to 2.14904e-006
Heightened Def Con from 2.14998e-006 to 2.15098e-006
Heightened Def Con from 2.15098e-006 to 2.1521e-006
Heightened Def Con from 2.15304e-006 to 2.15404e-006
Heightened Def Con from 2.15404e-006 to 2.15517e-006
Heightened Def Con from 2.15611e-006 to 2.15711e-006
Heightened Def Con from 2.15711e-006 to 2.15823e-006
Heightened Def Con from 2.15917e-006 to 2.16017e-006
Heightened Def Con from 2.16017e-006 to 2.1613e-006
Heightened Def Con from 2.16224e-006 to 2.16324e-006
Heightened Def Con from 2.16324e-006 to 2.16436e-006
Heightened Def Con from 2.1653e-006 to 2.1663e-006
Heightened Def Con from 2.1663e-006 to 2.16743e-006
Heightened Def Con from 2.16837e-006 to 2.16937e-006
Heightened Def Con from 2.16937e-006 to 2.17049e-006
Heightened Def Con from 2.17143e-006 to 2.17243e-006
Heightened Def Con from 2.17243e-006 to 2.17356e-006
Heightened Def Con from 2.1745e-006 to 2.1755e-006
Heightened Def Con from 2.1755e-006 to 2.17662e-006
Heightened Def Con from 2.17756e-006 to 2.17856e-006
Heightened Def Con from 2.17856e-006 to 2.17969e-006
Heightened Def Con from 2.18063e-006 to 2.18163e-006
Heightened Def Con from 2.18163e-006 to 2.18275e-006
Heightened Def Con from 2.18369e-006 to 2.18469e-006
Heightened Def Con from 2.1847e-006 to 2.18582e-006
Heightened Def Con from 2.18676e-006 to 2.18776e-006
Heightened Def Con from 2.18776e-006 to 2.18889e-006
Heightened Def Con from 2.18982e-006 to 2.19082e-006
Heightened Def Con from 2.19083e-006 to 2.19195e-006
Heightened Def Con from 2.19289e-006 to 2.19389e-006
Heightened Def Con from 2.19389e-006 to 2.19502e-006
Heightened Def Con from 2.19595e-006 to 2.19695e-006
Heightened Def Con from 2.19696e-006 to 2.19808e-006
Heightened Def Con from 2.19902e-006 to 2.20002e-006
Heightened Def Con from 2.20002e-006 to 2.20115e-006
Heightened Def Con from 2.20208e-006 to 2.20309e-006
Heightened Def Con from 2.20309e-006 to 2.20421e-006
Heightened Def Con from 2.20515e-006 to 2.20615e-006
Heightened Def Con from 2.20615e-006 to 2.20728e-006
Heightened Def Con from 2.20822e-006 to 2.20922e-006
Heightened Def Con from 2.20922e-006 to 2.21034e-006
Heightened Def Con from 2.21128e-006 to 2.21228e-006
Heightened Def Con from 2.21228e-006 to 2.21341e-006
Heightened Def Con from 2.21435e-006 to 2.21535e-006
Heightened Def Con from 2.21535e-006 to 2.21647e-006
Heightened Def Con from 2.21741e-006 to 2.21841e-006
Heightened Def Con from 2.21841e-006 to 2.21954e-006
Heightened Def Con from 2.22048e-006 to 2.22148e-006
Heightened Def Con from 2.22148e-006 to 2.2226e-006
Heightened Def Con from 2.22354e-006 to 2.22454e-006
Heightened Def Con from 2.22454e-006 to 2.22567e-006
Heightened Def Con from 2.22661e-006 to 2.22761e-006
Heightened Def Con from 2.22761e-006 to 2.22873e-006
Heightened Def Con from 2.22967e-006 to 2.23067e-006
Heightened Def Con from 2.23067e-006 to 2.2318e-006
Heightened Def Con from 2.23274e-006 to 2.23374e-006
Heightened Def Con from 2.23374e-006 to 2.23486e-006
Heightened Def Con from 2.2358e-006 to 2.2368e-006
Heightened Def Con from 2.2368e-006 to 2.23793e-006
Heightened Def Con from 2.23887e-006 to 2.23987e-006
Heightened Def Con from 2.23987e-006 to 2.24099e-006
Heightened Def Con from 2.24193e-006 to 2.24293e-006
Heightened Def Con from 2.24293e-006 to 2.24406e-006
Heightened Def Con from 2.245e-006 to 2.246e-006
Heightened Def Con from 2.246e-006 to 2.24712e-006
Heightened Def Con from 2.24806e-006 to 2.24906e-006
Heightened Def Con from 2.24906e-006 to 2.25019e-006
Heightened Def Con from 2.25113e-006 to 2.25213e-006
Heightened Def Con from 2.25213e-006 to 2.25325e-006
Heightened Def Con from 2.25419e-006 to 2.25519e-006
Heightened Def Con from 2.25519e-006 to 2.25632e-006
Heightened Def Con from 2.25726e-006 to 2.25826e-006
Heightened Def Con from 2.25826e-006 to 2.25938e-006
Heightened Def Con from 2.26032e-006 to 2.26132e-006
Heightened Def Con from 2.26132e-006 to 2.26245e-006
Heightened Def Con from 2.26339e-006 to 2.26439e-006
Heightened Def Con from 2.26439e-006 to 2.26551e-006
Heightened Def Con from 2.26645e-006 to 2.26745e-006
Heightened Def Con from 2.26745e-006 to 2.26858e-006
Heightened Def Con from 2.26952e-006 to 2.27052e-006
Heightened Def Con from 2.27052e-006 to 2.27164e-006
Heightened Def Con from 2.27258e-006 to 2.27358e-006
Heightened Def Con from 2.27358e-006 to 2.27471e-006
Heightened Def Con from 2.27565e-006 to 2.27665e-006
Heightened Def Con from 2.27665e-006 to 2.27777e-006
Heightened Def Con from 2.27871e-006 to 2.27971e-006
Heightened Def Con from 2.27971e-006 to 2.28084e-006
Heightened Def Con from 2.28178e-006 to 2.28278e-006
Heightened Def Con from 2.28278e-006 to 2.2839e-006
Heightened Def Con from 2.28484e-006 to 2.28584e-006
Heightened Def Con from 2.28584e-006 to 2.28697e-006
Heightened Def Con from 2.28791e-006 to 2.28891e-006
Heightened Def Con from 2.28891e-006 to 2.29003e-006
Heightened Def Con from 2.29097e-006 to 2.29197e-006
Heightened Def Con from 2.29197e-006 to 2.2931e-006
Heightened Def Con from 2.29404e-006 to 2.29504e-006
Heightened Def Con from 2.29504e-006 to 2.29616e-006
Heightened Def Con from 2.2971e-006 to 2.2981e-006
Heightened Def Con from 2.2981e-006 to 2.29923e-006
Heightened Def Con from 2.30017e-006 to 2.30117e-006
Heightened Def Con from 2.30117e-006 to 2.30229e-006
Heightened Def Con from 2.30323e-006 to 2.30423e-006
Heightened Def Con from 2.30424e-006 to 2.30536e-006
Heightened Def Con from 2.3063e-006 to 2.3073e-006
Heightened Def Con from 2.3073e-006 to 2.30843e-006
Heightened Def Con from 2.30936e-006 to 2.31036e-006
Heightened Def Con from 2.31037e-006 to 2.31149e-006
Heightened Def Con from 2.31243e-006 to 2.31343e-006
Heightened Def Con from 2.31343e-006 to 2.31456e-006
Heightened Def Con from 2.31549e-006 to 2.31649e-006
Heightened Def Con from 2.3165e-006 to 2.31762e-006
Heightened Def Con from 2.31856e-006 to 2.31956e-006
[...]
Heightened Def Con from 7.46761e-005 to 7.46772e-005
Heightened Def Con from 7.46782e-005 to 7.46792e-005
Heightened Def Con from 7.46792e-005 to 7.46803e-005
Heightened Def Con from 7.46813e-005 to 7.46823e-005
Heightened Def Con from 7.46823e-005 to 7.46834e-005
Heightened Def Con from 7.46843e-005 to 7.46853e-005
Heightened Def Con from 7.46853e-005 to 7.46864e-005
Heightened Def Con from 7.46874e-005 to 7.46884e-005
Heightened Def Con from 7.46884e-005 to 7.46895e-005
Heightened Def Con from 7.46905e-005 to 7.46915e-005
Heightened Def Con from 7.46915e-005 to 7.46926e-005
Heightened Def Con from 7.46935e-005 to 7.46945e-005
Heightened Def Con from 7.46945e-005 to 7.46956e-005
Heightened Def Con from 7.46966e-005 to 7.46976e-005
Heightened Def Con from 7.46976e-005 to 7.46987e-005
Heightened Def Con from 7.46997e-005 to 7.47007e-005
Heightened Def Con from 7.47007e-005 to 7.47018e-005
Heightened Def Con from 7.47027e-005 to 7.47037e-005
Heightened Def Con from 7.47037e-005 to 7.47048e-005
Heightened Def Con from 7.47058e-005 to 7.47068e-005
Heightened Def Con from 7.47068e-005 to 7.47079e-005
Heightened Def Con from 7.47088e-005 to 7.47098e-005
Heightened Def Con from 7.47098e-005 to 7.4711e-005
Heightened Def Con from 7.47119e-005 to 7.47129e-005
Heightened Def Con from 7.47129e-005 to 7.4714e-005
Heightened Def Con from 7.4715e-005 to 7.4716e-005
Heightened Def Con from 7.4716e-005 to 7.47171e-005
Heightened Def Con from 7.4718e-005 to 7.4719e-005
Heightened Def Con from 7.4719e-005 to 7.47202e-005
Heightened Def Con from 7.47211e-005 to 7.47221e-005
Heightened Def Con from 7.47221e-005 to 7.47232e-005
Heightened Def Con from 7.47242e-005 to 7.47252e-005
Heightened Def Con from 7.47252e-005 to 7.47263e-005
Heightened Def Con from 7.47272e-005 to 7.47282e-005
Heightened Def Con from 7.47282e-005 to 7.47294e-005
Heightened Def Con from 7.47303e-005 to 7.47313e-005
Heightened Def Con from 7.47313e-005 to 7.47324e-005
Heightened Def Con from 7.47334e-005 to 7.47344e-005
Heightened Def Con from 7.47344e-005 to 7.47355e-005
Heightened Def Con from 7.47364e-005 to 7.47374e-005
Heightened Def Con from 7.47374e-005 to 7.47386e-005
Heightened Def Con from 7.47395e-005 to 7.47405e-005
Heightened Def Con from 7.47405e-005 to 7.47416e-005
Heightened Def Con from 7.47426e-005 to 7.47436e-005
Heightened Def Con from 7.47436e-005 to 7.47447e-005
Heightened Def Con from 7.47456e-005 to 7.47466e-005
Heightened Def Con from 7.47466e-005 to 7.47478e-005
Heightened Def Con from 7.47487e-005 to 7.47497e-005
Heightened Def Con from 7.47497e-005 to 7.47508e-005
Heightened Def Con from 7.47518e-005 to 7.47528e-005
Heightened Def Con from 7.47528e-005 to 7.47539e-005
Heightened Def Con from 7.47548e-005 to 7.47558e-005
Heightened Def Con from 7.47558e-005 to 7.4757e-005
Heightened Def Con from 7.47579e-005 to 7.47589e-005
Heightened Def Con from 7.47589e-005 to 7.476e-005
Heightened Def Con from 7.4761e-005 to 7.4762e-005
Heightened Def Con from 7.4762e-005 to 7.47631e-005
Heightened Def Con from 7.4764e-005 to 7.4765e-005
Heightened Def Con from 7.4765e-005 to 7.47662e-005
Heightened Def Con from 7.47671e-005 to 7.47681e-005
Heightened Def Con from 7.47681e-005 to 7.47692e-005
Heightened Def Con from 7.47702e-005 to 7.47712e-005
Heightened Def Con from 7.47712e-005 to 7.47723e-005
Heightened Def Con from 7.47732e-005 to 7.47742e-005
Heightened Def Con from 7.47742e-005 to 7.47754e-005
Heightened Def Con from 7.47763e-005 to 7.47773e-005
Heightened Def Con from 7.47773e-005 to 7.47784e-005
Heightened Def Con from 7.47794e-005 to 7.47804e-005
Heightened Def Con from 7.47804e-005 to 7.47815e-005
Heightened Def Con from 7.47824e-005 to 7.47834e-005
Heightened Def Con from 7.47834e-005 to 7.47846e-005
Heightened Def Con from 7.47855e-005 to 7.47865e-005
Heightened Def Con from 7.47865e-005 to 7.47876e-005
Heightened Def Con from 7.47886e-005 to 7.47896e-005
Heightened Def Con from 7.47896e-005 to 7.47907e-005
Heightened Def Con from 7.47916e-005 to 7.47926e-005
Heightened Def Con from 7.47926e-005 to 7.47938e-005
Heightened Def Con from 7.47947e-005 to 7.47957e-005
Heightened Def Con from 7.47957e-005 to 7.47968e-005
Heightened Def Con from 7.47978e-005 to 7.47988e-005
Heightened Def Con from 7.47988e-005 to 7.47999e-005
Heightened Def Con from 7.48008e-005 to 7.48018e-005
Heightened Def Con from 7.48018e-005 to 7.4803e-005
Heightened Def Con from 7.48039e-005 to 7.48049e-005
Heightened Def Con from 7.48049e-005 to 7.4806e-005
Heightened Def Con from 7.4807e-005 to 7.4808e-005
Heightened Def Con from 7.4808e-005 to 7.48091e-005
Heightened Def Con from 7.481e-005 to 7.4811e-005
Heightened Def Con from 7.4811e-005 to 7.48122e-005
Heightened Def Con from 7.48131e-005 to 7.48141e-005
Heightened Def Con from 7.48141e-005 to 7.48152e-005
Heightened Def Con from 7.48162e-005 to 7.48172e-005
Heightened Def Con from 7.48172e-005 to 7.48183e-005
Heightened Def Con from 7.48192e-005 to 7.48202e-005
Heightened Def Con from 7.48202e-005 to 7.48214e-005
Heightened Def Con from 7.48223e-005 to 7.48233e-005
Heightened Def Con from 7.48233e-005 to 7.48244e-005
Heightened Def Con from 7.48254e-005 to 7.48264e-005
Heightened Def Con from 7.48264e-005 to 7.48275e-005
Heightened Def Con from 7.48284e-005 to 7.48294e-005
Heightened Def Con from 7.48294e-005 to 7.48306e-005
Heightened Def Con from 7.48315e-005 to 7.48325e-005
Heightened Def Con from 7.48325e-005 to 7.48336e-005
Heightened Def Con from 7.48346e-005 to 7.48356e-005
Heightened Def Con from 7.48356e-005 to 7.48367e-005
Heightened Def Con from 7.48376e-005 to 7.48386e-005
Heightened Def Con from 7.48386e-005 to 7.48398e-005
Heightened Def Con from 7.48407e-005 to 7.48417e-005
Heightened Def Con from 7.48417e-005 to 7.48428e-005
Heightened Def Con from 7.48438e-005 to 7.48448e-005
Heightened Def Con from 7.48448e-005 to 7.48459e-005
Heightened Def Con from 7.48468e-005 to 7.48478e-005
Heightened Def Con from 7.48478e-005 to 7.4849e-005
Heightened Def Con from 7.48499e-005 to 7.48509e-005
Heightened Def Con from 7.48509e-005 to 7.4852e-005
Heightened Def Con from 7.4853e-005 to 7.4854e-005
Heightened Def Con from 7.4854e-005 to 7.48551e-005
Heightened Def Con from 7.4856e-005 to 7.4857e-005
Heightened Def Con from 7.4857e-005 to 7.48582e-005
Heightened Def Con from 7.48591e-005 to 7.48601e-005
Heightened Def Con from 7.48601e-005 to 7.48612e-005
Heightened Def Con from 7.48622e-005 to 7.48632e-005
Heightened Def Con from 7.48632e-005 to 7.48643e-005
Heightened Def Con from 7.48652e-005 to 7.48662e-005
Heightened Def Con from 7.48662e-005 to 7.48674e-005
Heightened Def Con from 7.48683e-005 to 7.48693e-005
Heightened Def Con from 7.48693e-005 to 7.48704e-005
Heightened Def Con from 7.48714e-005 to 7.48724e-005
Heightened Def Con from 7.48724e-005 to 7.48735e-005
Heightened Def Con from 7.48744e-005 to 7.48754e-005
Heightened Def Con from 7.48754e-005 to 7.48766e-005
Heightened Def Con from 7.48775e-005 to 7.48785e-005
Heightened Def Con from 7.48785e-005 to 7.48796e-005
Heightened Def Con from 7.48806e-005 to 7.48816e-005
Heightened Def Con from 7.48816e-005 to 7.48827e-005
Heightened Def Con from 7.48836e-005 to 7.48846e-005
Heightened Def Con from 7.48846e-005 to 7.48857e-005
Heightened Def Con from 7.48867e-005 to 7.48877e-005
Heightened Def Con from 7.48877e-005 to 7.48888e-005
Heightened Def Con from 7.48898e-005 to 7.48908e-005
Heightened Def Con from 7.48908e-005 to 7.48919e-005
Heightened Def Con from 7.48928e-005 to 7.48938e-005
Heightened Def Con from 7.48938e-005 to 7.48949e-005
Heightened Def Con from 7.48959e-005 to 7.48969e-005
Heightened Def Con from 7.48969e-005 to 7.4898e-005
Heightened Def Con from 7.4899e-005 to 7.49e-005
Heightened Def Con from 7.49e-005 to 7.49011e-005
Heightened Def Con from 7.4902e-005 to 7.4903e-005
Heightened Def Con from 7.4903e-005 to 7.49041e-005
Heightened Def Con from 7.49051e-005 to 7.49061e-005
Heightened Def Con from 7.49061e-005 to 7.49072e-005
Heightened Def Con from 7.49082e-005 to 7.49092e-005
Heightened Def Con from 7.49092e-005 to 7.49103e-005
Heightened Def Con from 7.49112e-005 to 7.49122e-005
Heightened Def Con from 7.49122e-005 to 7.49133e-005
Heightened Def Con from 7.49143e-005 to 7.49153e-005
Heightened Def Con from 7.49153e-005 to 7.49164e-005
Heightened Def Con from 7.49174e-005 to 7.49184e-005
Heightened Def Con from 7.49184e-005 to 7.49195e-005
Heightened Def Con from 7.49204e-005 to 7.49214e-005
Heightened Def Con from 7.49214e-005 to 7.49225e-005
Heightened Def Con from 7.49235e-005 to 7.49245e-005
Heightened Def Con from 7.49245e-005 to 7.49256e-005
Heightened Def Con from 7.49266e-005 to 7.49276e-005
Heightened Def Con from 7.49276e-005 to 7.49287e-005
Heightened Def Con from 7.49296e-005 to 7.49306e-005
Heightened Def Con from 7.49306e-005 to 7.49317e-005
Heightened Def Con from 7.49327e-005 to 7.49337e-005
Heightened Def Con from 7.49337e-005 to 7.49348e-005
Heightened Def Con from 7.49357e-005 to 7.49368e-005
Heightened Def Con from 7.49368e-005 to 7.49379e-005
Heightened Def Con from 7.49388e-005 to 7.49398e-005
Heightened Def Con from 7.49398e-005 to 7.49409e-005
Heightened Def Con from 7.49419e-005 to 7.49429e-005
Heightened Def Con from 7.49429e-005 to 7.4944e-005
Heightened Def Con from 7.49449e-005 to 7.49459e-005
Heightened Def Con from 7.49459e-005 to 7.49471e-005
Heightened Def Con from 7.4948e-005 to 7.4949e-005
Heightened Def Con from 7.4949e-005 to 7.49501e-005
Heightened Def Con from 7.49511e-005 to 7.49521e-005
Heightened Def Con from 7.49521e-005 to 7.49532e-005
Heightened Def Con from 7.49541e-005 to 7.49551e-005
Heightened Def Con from 7.49551e-005 to 7.49563e-005
Heightened Def Con from 7.49572e-005 to 7.49582e-005
Heightened Def Con from 7.49582e-005 to 7.49593e-005
Heightened Def Con from 7.49603e-005 to 7.49613e-005
Heightened Def Con from 7.49613e-005 to 7.49624e-005
Heightened Def Con from 7.49633e-005 to 7.49643e-005
Heightened Def Con from 7.49643e-005 to 7.49655e-005
Heightened Def Con from 7.49664e-005 to 7.49674e-005
Heightened Def Con from 7.49674e-005 to 7.49685e-005
Heightened Def Con from 7.49695e-005 to 7.49705e-005
Heightened Def Con from 7.49705e-005 to 7.49716e-005
Heightened Def Con from 7.49725e-005 to 7.49735e-005
Heightened Def Con from 7.49735e-005 to 7.49747e-005
Heightened Def Con from 7.49756e-005 to 7.49766e-005
Heightened Def Con from 7.49766e-005 to 7.49777e-005
Heightened Def Con from 7.49787e-005 to 7.49797e-005
Heightened Def Con from 7.49797e-005 to 7.49808e-005
Heightened Def Con from 7.49817e-005 to 7.49827e-005
Heightened Def Con from 7.49827e-005 to 7.49839e-005
Heightened Def Con from 7.49848e-005 to 7.49858e-005
Heightened Def Con from 7.49858e-005 to 7.49869e-005
Heightened Def Con from 7.49879e-005 to 7.49889e-005
Heightened Def Con from 7.49889e-005 to 7.499e-005
Heightened Def Con from 7.49909e-005 to 7.49919e-005
Heightened Def Con from 7.49919e-005 to 7.49931e-005
Heightened Def Con from 7.4994e-005 to 7.4995e-005
Heightened Def Con from 7.4995e-005 to 7.49961e-005
Heightened Def Con from 7.49971e-005 to 7.49981e-005
Heightened Def Con from 7.49981e-005 to 7.49992e-005
Heightened Def Con from 7.50001e-005 to 7.50011e-005
Heightened Def Con from 7.50011e-005 to 7.50023e-005
Heightened Def Con from 7.50032e-005 to 7.50042e-005
Heightened Def Con from 7.50042e-005 to 7.50053e-005
Heightened Def Con from 7.50063e-005 to 7.50073e-005
Heightened Def Con from 7.50073e-005 to 7.50084e-005
Heightened Def Con from 7.50093e-005 to 7.50103e-005
Heightened Def Con from 7.50103e-005 to 7.50115e-005
Heightened Def Con from 7.50124e-005 to 7.50134e-005
Heightened Def Con from 7.50134e-005 to 7.50145e-005
Heightened Def Con from 7.50155e-005 to 7.50165e-005
Heightened Def Con from 7.50165e-005 to 7.50176e-005
Heightened Def Con from 7.50185e-005 to 7.50195e-005
Heightened Def Con from 7.50195e-005 to 7.50207e-005
Heightened Def Con from 7.50216e-005 to 7.50226e-005
Heightened Def Con from 7.50226e-005 to 7.50237e-005
Heightened Def Con from 7.50247e-005 to 7.50257e-005
Heightened Def Con from 7.50257e-005 to 7.50268e-005
Heightened Def Con from 7.50277e-005 to 7.50287e-005
Heightened Def Con from 7.50287e-005 to 7.50299e-005
Heightened Def Con from 7.50308e-005 to 7.50318e-005
Heightened Def Con from 7.50318e-005 to 7.50329e-005
Heightened Def Con from 7.50339e-005 to 7.50349e-005
Heightened Def Con from 7.50349e-005 to 7.5036e-005
Heightened Def Con from 7.50369e-005 to 7.50379e-005
Heightened Def Con from 7.50379e-005 to 7.50391e-005
Heightened Def Con from 7.504e-005 to 7.5041e-005
Heightened Def Con from 7.5041e-005 to 7.50421e-005
Heightened Def Con from 7.50431e-005 to 7.50441e-005
Heightened Def Con from 7.50441e-005 to 7.50452e-005
Heightened Def Con from 7.50461e-005 to 7.50471e-005
Heightened Def Con from 7.50471e-005 to 7.50483e-005
Heightened Def Con from 7.50492e-005 to 7.50502e-005
Heightened Def Con from 7.50502e-005 to 7.50513e-005
Heightened Def Con from 7.50523e-005 to 7.50533e-005
Heightened Def Con from 7.50533e-005 to 7.50544e-005
Heightened Def Con from 7.50553e-005 to 7.50563e-005
Heightened Def Con from 7.50563e-005 to 7.50575e-005
Heightened Def Con from 7.50584e-005 to 7.50594e-005
Heightened Def Con from 7.50594e-005 to 7.50605e-005
Heightened Def Con from 7.50615e-005 to 7.50625e-005
Heightened Def Con from 7.50625e-005 to 7.50636e-005
Heightened Def Con from 7.50645e-005 to 7.50655e-005
Heightened Def Con from 7.50655e-005 to 7.50667e-005
Heightened Def Con from 7.50676e-005 to 7.50686e-005
Heightened Def Con from 7.50686e-005 to 7.50697e-005
Heightened Def Con from 7.50707e-005 to 7.50717e-005
Heightened Def Con from 7.50717e-005 to 7.50728e-005
Heightened Def Con from 7.50737e-005 to 7.50747e-005
Heightened Def Con from 7.50747e-005 to 7.50759e-005
Heightened Def Con from 7.50768e-005 to 7.50778e-005
Heightened Def Con from 7.50778e-005 to 7.50789e-005
Heightened Def Con from 7.50799e-005 to 7.50809e-005
Heightened Def Con from 7.50809e-005 to 7.5082e-005
Heightened Def Con from 7.50829e-005 to 7.50839e-005
Heightened Def Con from 7.50839e-005 to 7.50851e-005
Heightened Def Con from 7.5086e-005 to 7.5087e-005
Heightened Def Con from 7.5087e-005 to 7.50881e-005
Heightened Def Con from 7.50891e-005 to 7.50901e-005
Heightened Def Con from 7.50901e-005 to 7.50912e-005
Heightened Def Con from 7.50921e-005 to 7.50931e-005
Heightened Def Con from 7.50931e-005 to 7.50943e-005
Heightened Def Con from 7.50952e-005 to 7.50962e-005
Heightened Def Con from 7.50962e-005 to 7.50973e-005
Heightened Def Con from 7.50983e-005 to 7.50993e-005
Heightened Def Con from 7.50993e-005 to 7.51004e-005
Heightened Def Con from 7.51013e-005 to 7.51023e-005
Heightened Def Con from 7.51023e-005 to 7.51035e-005
Heightened Def Con from 7.51044e-005 to 7.51054e-005
Heightened Def Con from 7.51054e-005 to 7.51065e-005
Heightened Def Con from 7.51075e-005 to 7.51085e-005
Heightened Def Con from 7.51085e-005 to 7.51096e-005
Heightened Def Con from 7.51105e-005 to 7.51115e-005
Heightened Def Con from 7.51115e-005 to 7.51127e-005
Heightened Def Con from 7.51136e-005 to 7.51146e-005
Heightened Def Con from 7.51146e-005 to 7.51157e-005
Heightened Def Con from 7.51167e-005 to 7.51177e-005
Heightened Def Con from 7.51177e-005 to 7.51188e-005
Heightened Def Con from 7.51197e-005 to 7.51207e-005
Heightened Def Con from 7.51207e-005 to 7.51218e-005
Heightened Def Con from 7.51228e-005 to 7.51238e-005
Heightened Def Con from 7.51238e-005 to 7.51249e-005
Heightened Def Con from 7.51259e-005 to 7.51269e-005
Heightened Def Con from 7.51269e-005 to 7.5128e-005
Heightened Def Con from 7.51289e-005 to 7.51299e-005
Heightened Def Con from 7.51299e-005 to 7.5131e-005
Heightened Def Con from 7.5132e-005 to 7.5133e-005
Heightened Def Con from 7.5133e-005 to 7.51341e-005
Heightened Def Con from 7.51351e-005 to 7.51361e-005
Heightened Def Con from 7.51361e-005 to 7.51372e-005
Heightened Def Con from 7.51381e-005 to 7.51391e-005
Heightened Def Con from 7.51391e-005 to 7.51402e-005
Heightened Def Con from 7.51412e-005 to 7.51422e-005
Heightened Def Con from 7.51422e-005 to 7.51433e-005
Heightened Def Con from 7.51443e-005 to 7.51453e-005
Heightened Def Con from 7.51453e-005 to 7.51464e-005
Heightened Def Con from 7.51473e-005 to 7.51483e-005
Heightened Def Con from 7.51483e-005 to 7.51494e-005
Heightened Def Con from 7.51504e-005 to 7.51514e-005
Heightened Def Con from 7.51514e-005 to 7.51525e-005
Heightened Def Con from 7.51535e-005 to 7.51545e-005
Heightened Def Con from 7.51545e-005 to 7.51556e-005
Heightened Def Con from 7.51565e-005 to 7.51575e-005
Heightened Def Con from 7.51575e-005 to 7.51586e-005
Heightened Def Con from 7.51596e-005 to 7.51606e-005
Heightened Def Con from 7.51606e-005 to 7.51617e-005
Heightened Def Con from 7.51627e-005 to 7.51637e-005
Heightened Def Con from 7.51637e-005 to 7.51648e-005
Heightened Def Con from 7.51657e-005 to 7.51667e-005
Heightened Def Con from 7.51667e-005 to 7.51678e-005
Heightened Def Con from 7.51688e-005 to 7.51698e-005
Heightened Def Con from 7.51698e-005 to 7.51709e-005
Heightened Def Con from 7.51718e-005 to 7.51728e-005
Heightened Def Con from 7.51729e-005 to 7.5174e-005
Heightened Def Con from 7.51749e-005 to 7.51759e-005
Heightened Def Con from 7.51759e-005 to 7.5177e-005
Heightened Def Con from 7.5178e-005 to 7.5179e-005
Heightened Def Con from 7.5179e-005 to 7.51801e-005
Heightened Def Con from 7.5181e-005 to 7.5182e-005
Heightened Def Con from 7.5182e-005 to 7.51832e-005
Heightened Def Con from 7.51841e-005 to 7.51851e-005
Heightened Def Con from 7.51851e-005 to 7.51862e-005
Heightened Def Con from 7.51872e-005 to 7.51882e-005
Heightened Def Con from 7.51882e-005 to 7.51893e-005
Heightened Def Con from 7.51902e-005 to 7.51912e-005
Heightened Def Con from 7.51912e-005 to 7.51924e-005
Heightened Def Con from 7.51933e-005 to 7.51943e-005
Heightened Def Con from 7.51943e-005 to 7.51954e-005
Heightened Def Con from 7.51964e-005 to 7.51974e-005
Heightened Def Con from 7.51974e-005 to 7.51985e-005
Heightened Def Con from 7.51994e-005 to 7.52004e-005
Heightened Def Con from 7.52004e-005 to 7.52016e-005
Heightened Def Con from 7.52025e-005 to 7.52035e-005
Heightened Def Con from 7.52035e-005 to 7.52046e-005
Heightened Def Con from 7.52056e-005 to 7.52066e-005
Heightened Def Con from 7.52066e-005 to 7.52077e-005
Heightened Def Con from 7.52086e-005 to 7.52096e-005
Heightened Def Con from 7.52096e-005 to 7.52108e-005
Heightened Def Con from 7.52117e-005 to 7.52127e-005
Heightened Def Con from 7.52127e-005 to 7.52138e-005
Heightened Def Con from 7.52148e-005 to 7.52158e-005
Heightened Def Con from 7.52158e-005 to 7.52169e-005
Heightened Def Con from 7.52178e-005 to 7.52188e-005
Heightened Def Con from 7.52188e-005 to 7.522e-005
Heightened Def Con from 7.52209e-005 to 7.52219e-005
Heightened Def Con from 7.52219e-005 to 7.5223e-005
Heightened Def Con from 7.5224e-005 to 7.5225e-005
Heightened Def Con from 7.5225e-005 to 7.52261e-005
Heightened Def Con from 7.5227e-005 to 7.5228e-005
Heightened Def Con from 7.5228e-005 to 7.52292e-005
Heightened Def Con from 7.52301e-005 to 7.52311e-005
Heightened Def Con from 7.52311e-005 to 7.52322e-005
Heightened Def Con from 7.52332e-005 to 7.52342e-005
Heightened Def Con from 7.52342e-005 to 7.52353e-005
Heightened Def Con from 7.52362e-005 to 7.52372e-005
Heightened Def Con from 7.52372e-005 to 7.52384e-005
Heightened Def Con from 7.52393e-005 to 7.52403e-005
Heightened Def Con from 7.52403e-005 to 7.52414e-005
Heightened Def Con from 7.52424e-005 to 7.52434e-005
Heightened Def Con from 7.52434e-005 to 7.52445e-005
Heightened Def Con from 7.52454e-005 to 7.52464e-005
Heightened Def Con from 7.52464e-005 to 7.52476e-005
Heightened Def Con from 7.52485e-005 to 7.52495e-005
Heightened Def Con from 7.52495e-005 to 7.52506e-005
Heightened Def Con from 7.52516e-005 to 7.52526e-005
Heightened Def Con from 7.52526e-005 to 7.52537e-005
Heightened Def Con from 7.52546e-005 to 7.52556e-005
Heightened Def Con from 7.52556e-005 