Circuit: * G:\My Drive\Projekty\elektronika\Dohle\Dohle Ray (tremolo)\simulation.asc

WARNING: Less than two connections to node NC_01.  This node is used by Q:U1:3.
WARNING: Less than two connections to node NC_02.  This node is used by Q:U1:4.
Direct Newton iteration failed to find .op point.  (Use ".option noopiter" to skip.)
Starting Gmin stepping
Gmin = 10
vernier = 0.5
vernier = 0.25
Gmin = 3.08405
vernier = 0.125
vernier = 0.0625
vernier = 0.03125
vernier = 0.015625
vernier = 0.0078125
Gmin = 3.08405
vernier = 0.00390625
vernier = 0.00195313
vernier = 0.000976563
Gmin = 3.07803
vernier = 0.000488281
Gmin = 0
Gmin stepping failed

Starting source stepping with srcstepmethod=0
Source Step = 3.0303%
Source Step = 14.3939%
Source Step = 21.9697%
Source Step = 29.5455%
Source Step = 37.1212%
Source Step = 44.697%
vernier = 0.375
Source Step = 54.5455%
Source Step = 65.9091%
Source Step = 77.2727%
Source Step = 88.6364%
Source Step = 100%
Source stepping succeeded in finding the operating point.

Ignoring empty pin current: Ix(u1:n009)
Ignoring empty pin current: Ix(u1:nreset)
Ignoring empty pin current: Ix(u1:n002)
Ignoring empty pin current: Ix(u1:n005)
Ignoring empty pin current: Ix(u1:n008)
Ignoring empty pin current: Ix(u2:n009)
Ignoring empty pin current: Ix(u2:nreset)
Ignoring empty pin current: Ix(u2:n002)
Ignoring empty pin current: Ix(u2:n005)
Ignoring empty pin current: Ix(u2:n008)
Ignoring empty pin current: Ix(u1:n009)
Ignoring empty pin current: Ix(u1:nreset)
Ignoring empty pin current: Ix(u1:n002)
Ignoring empty pin current: Ix(u1:n005)
Ignoring empty pin current: Ix(u1:n008)
Ignoring empty pin current: Ix(u2:n009)
Ignoring empty pin current: Ix(u2:nreset)
Ignoring empty pin current: Ix(u2:n002)
Ignoring empty pin current: Ix(u2:n005)
Ignoring empty pin current: Ix(u2:n008)

Date: Sat Mar 26 10:04:07 2022
Total elapsed time: 0.422 seconds.

tnom = 27
temp = 27
method = modified trap
totiter = 13674
traniter = 11397
tranpoints = 3881
accept = 2571
rejected = 1310
matrix size = 97
fillins = 117
solver = Normal
Thread vector: 8.4/7.4[2] 8.5/4.7[2] 1.5/1.2[2] 0.2/1.4[1]  2592/500
Matrix Compiler1: 10.85 KB object code size  1.8/0.8/[0.6]
Matrix Compiler2: 10.65 KB object code size  0.9/1.0/[0.5]

