Circuit: * C:\Users\maksym\source\repos\Dohle\Teensy 9V level shifter\simulations\cv out with filtering.asc

Direct Newton iteration failed to find .op point.  (Use ".option noopiter" to skip.)
Starting Gmin stepping
Gmin = 10
Gmin = 1.07374
Gmin = 0.115292
Gmin = 0.0123794
Gmin = 0.00132923
vernier = 0.5
vernier = 0.25
vernier = 0.125
vernier = 0.0625
Gmin = 0.00100083
vernier = 0.03125
vernier = 0.015625
vernier = 0.0078125
vernier = 0.00390625
vernier = 0.00195313
Gmin = 0.00100083
vernier = 0.000976563
vernier = 0.000488281
Gmin = 0
Gmin stepping failed

Starting source stepping with srcstepmethod=0
Source Step = 3.0303%
Source Step = 33.3333%
Source Step = 63.6364%
Source Step = 93.9394%
Source stepping succeeded in finding the operating point.


Date: Thu Jul 21 22:24:45 2022
Total elapsed time: 0.095 seconds.

tnom = 27
temp = 27
method = modified trap
totiter = 4015
traniter = 2224
tranpoints = 1054
accept = 1052
rejected = 2
matrix size = 41
fillins = 49
solver = Normal
Matrix Compiler1: 4.26 KB object code size  0.7/0.3/[0.2]
Matrix Compiler2: 4.05 KB object code size  0.3/0.5/[0.2]

