Circuit: * C:\Users\maksym\source\repos\Dohle\Teensy 9V level shifter\simulations\Draft1.asc

Error on line 13786 : q:u3:1 n015«:vee» 0«:vgnd» nc_01«:mode» 0«:0» pnp
	 Unable to find definition of model "pnp"
WARNING: Node P002 is floating.

Direct Newton iteration failed to find .op point.  (Use ".option noopiter" to skip.)
Starting Gmin stepping
Gmin = 10
Gmin = 1.07374
Gmin = 0.115292
Gmin = 0.0123794
Gmin = 0.00132923
Gmin = 0.000142725
Gmin = 1.5325e-005
Gmin = 1.6455e-006
Gmin = 1.76685e-007
Gmin = 1.89714e-008
Gmin = 2.03704e-009
Gmin = 2.18725e-010
Gmin = 2.34854e-011
Gmin = 2.52173e-012
Gmin = 2.70769e-013
Gmin = 0
Gmin stepping succeeded in finding the operating point.

Ignoring empty pin current: Ix(u1:n009)
Ignoring empty pin current: Ix(u1:nreset)
Ignoring empty pin current: Ix(u1:n002)
Ignoring empty pin current: Ix(u1:n005)
Ignoring empty pin current: Ix(u1:n008)
Ignoring empty pin current: Ix(u2:n009)
Ignoring empty pin current: Ix(u2:nreset)
Ignoring empty pin current: Ix(u2:n002)
Ignoring empty pin current: Ix(u2:n005)
Ignoring empty pin current: Ix(u2:n008)
Ignoring empty pin current: Ix(u3:in)
Ignoring empty pin current: Ix(u3:out)
Ignoring empty pin current: Ix(u3:vcc)
Ignoring empty pin current: Ix(u3:gnd)
Ignoring empty pin current: Ix(u3:nout)
Ignoring empty pin current: Ix(u4:in)
Ignoring empty pin current: Ix(u4:out)
Ignoring empty pin current: Ix(u4:vcc)
Ignoring empty pin current: Ix(u4:gnd)
Ignoring empty pin current: Ix(u4:nout)
Ignoring empty pin current: Ix(u5:in)
Ignoring empty pin current: Ix(u5:out)
Ignoring empty pin current: Ix(u5:vcc)
Ignoring empty pin current: Ix(u5:gnd)
Ignoring empty pin current: Ix(u5:nout)
Ignoring empty pin current: Ix(u6:in)
Ignoring empty pin current: Ix(u6:out)
Ignoring empty pin current: Ix(u6:vcc)
Ignoring empty pin current: Ix(u6:gnd)
Ignoring empty pin current: Ix(u6:nout)
Ignoring empty pin current: Ix(u7:in)
Ignoring empty pin current: Ix(u7:out)
Ignoring empty pin current: Ix(u7:vcc)
Ignoring empty pin current: Ix(u7:gnd)
Ignoring empty pin current: Ix(u7:nout)
Ignoring empty pin current: Ix(u8:in)
Ignoring empty pin current: Ix(u8:out)
Ignoring empty pin current: Ix(u8:vcc)
Ignoring empty pin current: Ix(u8:gnd)
Ignoring empty pin current: Ix(u8:nout)
Ignoring empty pin current: Ix(u1:n009)
Ignoring empty pin current: Ix(u1:nreset)
Ignoring empty pin current: Ix(u1:n002)
Ignoring empty pin current: Ix(u1:n005)
Ignoring empty pin current: Ix(u1:n008)
Ignoring empty pin current: Ix(u2:n009)
Ignoring empty pin current: Ix(u2:nreset)
Ignoring empty pin current: Ix(u2:n002)
Ignoring empty pin current: Ix(u2:n005)
Ignoring empty pin current: Ix(u2:n008)
Ignoring empty pin current: Ix(u3:in)
Ignoring empty pin current: Ix(u3:out)
Ignoring empty pin current: Ix(u3:vcc)
Ignoring empty pin current: Ix(u3:gnd)
Ignoring empty pin current: Ix(u3:nout)
Ignoring empty pin current: Ix(u4:in)
Ignoring empty pin current: Ix(u4:out)
Ignoring empty pin current: Ix(u4:vcc)
Ignoring empty pin current: Ix(u4:gnd)
Ignoring empty pin current: Ix(u4:nout)
Ignoring empty pin current: Ix(u5:in)
Ignoring empty pin current: Ix(u5:out)
Ignoring empty pin current: Ix(u5:vcc)
Ignoring empty pin current: Ix(u5:gnd)
Ignoring empty pin current: Ix(u5:nout)
Ignoring empty pin current: Ix(u6:in)
Ignoring empty pin current: Ix(u6:out)
Ignoring empty pin current: Ix(u6:vcc)
Ignoring empty pin current: Ix(u6:gnd)
Ignoring empty pin current: Ix(u6:nout)
Ignoring empty pin current: Ix(u7:in)
Ignoring empty pin current: Ix(u7:out)
Ignoring empty pin current: Ix(u7:vcc)
Ignoring empty pin current: Ix(u7:gnd)
Ignoring empty pin current: Ix(u7:nout)
Ignoring empty pin current: Ix(u8:in)
Ignoring empty pin current: Ix(u8:out)
Ignoring empty pin current: Ix(u8:vcc)
Ignoring empty pin current: Ix(u8:gnd)
Ignoring empty pin current: Ix(u8:nout)
Heightened Def Con from 0.000425004 to 0.000425007
Heightened Def Con from 0.0024875 to 0.00248751

Date: Sun Jul 24 10:46:18 2022
Total elapsed time: 49.758 seconds.

tnom = 27
temp = 27
method = modified trap
totiter = 4061854
traniter = 4061301
tranpoints = 1788785
accept = 1283284
rejected = 505503
matrix size = 141
fillins = 53
solver = Normal
Thread vector: 7.7/4.8[2] 3.7/2.5[2] 1.9/1.3[2] 0.3/0.5[1]  2592/500
Matrix Compiler1: 11.49 KB object code size  1.9/1.0/[0.9]
Matrix Compiler2: 13.50 KB object code size  1.1/1.4/[0.9]

